/*---------------------------------------------------------------------------*\
| =========                 |                                                 |
| \\      /  F ield         | OpenFOAM: The Open Source CFD Toolbox           |
|  \\    /   O peration     | Version:  5.x                                   |
|   \\  /    A nd           | Web:      www.OpenFOAM.org                      |
|    \\/     M anipulation  |                                                 |
\*---------------------------------------------------------------------------*/
/*   Windows 32 and 64 bit porting by blueCAPE: http://www.bluecape.com.pt   *\
|  Based on Windows porting (2.0.x v4) by Symscape: http://www.symscape.com   |
\*---------------------------------------------------------------------------*/
Build  : 5.x-963176928289
Exec   : decomposePar -force
Date   : Mar 08 2022
Time   : 20:02:33
Host   : "AR-128-THREAD"
PID    : 24800
I/O    : uncollated
Case   : E:/CFDGAN/Gen_Box/41_Case_Type_Scatter_Height_40_Dist_30_dir_60/60
nProcs : 1
SigFpe : Enabling floating point exception trapping (FOAM_SIGFPE).
fileModificationChecking : Monitoring run-time modified files using timeStampMaster (fileModificationSkew 10)
allowSystemOperations : Allowing user-supplied system call operations

// * * * * * * * * * * * * * * * * * * * * * * * * * * * * * * * * * * * * * //
Create time



Decomposing mesh region0

Create mesh

Calculating distribution of cells
Selecting decompositionMethod scotch

Finished decomposition in 27.942 s

Calculating original mesh data

Distributing cells to processors

Distributing faces to processors

Distributing points to processors

Constructing processor meshes

Processor 0
    Number of cells = 194664
    Number of faces shared with processor 1 = 1949
    Number of faces shared with processor 2 = 921
    Number of faces shared with processor 3 = 1335
    Number of faces shared with processor 4 = 570
    Number of faces shared with processor 6 = 334
    Number of processor patches = 5
    Number of processor faces = 5109
    Number of boundary faces = 81766

Processor 1
    Number of cells = 194431
    Number of faces shared with processor 0 = 1949
    Number of faces shared with processor 2 = 546
    Number of faces shared with processor 6 = 1102
    Number of faces shared with processor 12 = 1582
    Number of faces shared with processor 13 = 167
    Number of processor patches = 5
    Number of processor faces = 5346
    Number of boundary faces = 82248

Processor 2
    Number of cells = 194870
    Number of faces shared with processor 0 = 921
    Number of faces shared with processor 1 = 546
    Number of faces shared with processor 3 = 2523
    Number of faces shared with processor 8 = 560
    Number of faces shared with processor 9 = 1986
    Number of faces shared with processor 11 = 29
    Number of faces shared with processor 12 = 430
    Number of processor patches = 7
    Number of processor faces = 6995
    Number of boundary faces = 81779

Processor 3
    Number of cells = 193434
    Number of faces shared with processor 0 = 1335
    Number of faces shared with processor 2 = 2523
    Number of faces shared with processor 4 = 772
    Number of faces shared with processor 9 = 13
    Number of faces shared with processor 11 = 294
    Number of processor patches = 5
    Number of processor faces = 4937
    Number of boundary faces = 82180

Processor 4
    Number of cells = 194961
    Number of faces shared with processor 0 = 570
    Number of faces shared with processor 3 = 772
    Number of faces shared with processor 5 = 1646
    Number of faces shared with processor 6 = 1022
    Number of faces shared with processor 7 = 28
    Number of processor patches = 5
    Number of processor faces = 4038
    Number of boundary faces = 82536

Processor 5
    Number of cells = 193920
    Number of faces shared with processor 4 = 1646
    Number of faces shared with processor 6 = 494
    Number of faces shared with processor 7 = 1065
    Number of processor patches = 3
    Number of processor faces = 3205
    Number of boundary faces = 82787

Processor 6
    Number of cells = 194500
    Number of faces shared with processor 0 = 334
    Number of faces shared with processor 1 = 1102
    Number of faces shared with processor 4 = 1022
    Number of faces shared with processor 5 = 494
    Number of faces shared with processor 7 = 1790
    Number of faces shared with processor 13 = 826
    Number of processor patches = 6
    Number of processor faces = 5568
    Number of boundary faces = 82376

Processor 7
    Number of cells = 191360
    Number of faces shared with processor 4 = 28
    Number of faces shared with processor 5 = 1065
    Number of faces shared with processor 6 = 1790
    Number of processor patches = 3
    Number of processor faces = 2883
    Number of boundary faces = 81701

Processor 8
    Number of cells = 194675
    Number of faces shared with processor 2 = 560
    Number of faces shared with processor 9 = 2137
    Number of faces shared with processor 11 = 1053
    Number of faces shared with processor 12 = 1709
    Number of faces shared with processor 13 = 437
    Number of faces shared with processor 14 = 105
    Number of processor patches = 6
    Number of processor faces = 6001
    Number of boundary faces = 81843

Processor 9
    Number of cells = 191541
    Number of faces shared with processor 2 = 1986
    Number of faces shared with processor 3 = 13
    Number of faces shared with processor 8 = 2137
    Number of faces shared with processor 11 = 1398
    Number of processor patches = 4
    Number of processor faces = 5534
    Number of boundary faces = 80561

Processor 10
    Number of cells = 191476
    Number of faces shared with processor 11 = 1582
    Number of faces shared with processor 14 = 633
    Number of faces shared with processor 15 = 1639
    Number of processor patches = 3
    Number of processor faces = 3854
    Number of boundary faces = 81735

Processor 11
    Number of cells = 191566
    Number of faces shared with processor 2 = 29
    Number of faces shared with processor 3 = 294
    Number of faces shared with processor 8 = 1053
    Number of faces shared with processor 9 = 1398
    Number of faces shared with processor 10 = 1582
    Number of faces shared with processor 14 = 440
    Number of processor patches = 6
    Number of processor faces = 4796
    Number of boundary faces = 81640

Processor 12
    Number of cells = 193469
    Number of faces shared with processor 1 = 1582
    Number of faces shared with processor 2 = 430
    Number of faces shared with processor 8 = 1709
    Number of faces shared with processor 13 = 1455
    Number of processor patches = 4
    Number of processor faces = 5176
    Number of boundary faces = 80786

Processor 13
    Number of cells = 191113
    Number of faces shared with processor 1 = 167
    Number of faces shared with processor 6 = 826
    Number of faces shared with processor 8 = 437
    Number of faces shared with processor 12 = 1455
    Number of faces shared with processor 14 = 1476
    Number of processor patches = 5
    Number of processor faces = 4361
    Number of boundary faces = 81237

Processor 14
    Number of cells = 191415
    Number of faces shared with processor 8 = 105
    Number of faces shared with processor 10 = 633
    Number of faces shared with processor 11 = 440
    Number of faces shared with processor 13 = 1476
    Number of faces shared with processor 15 = 1679
    Number of processor patches = 5
    Number of processor faces = 4333
    Number of boundary faces = 80693

Processor 15
    Number of cells = 191101
    Number of faces shared with processor 10 = 1639
    Number of faces shared with processor 14 = 1679
    Number of processor patches = 2
    Number of processor faces = 3318
    Number of boundary faces = 81772

Number of processor faces = 37727
Max number of cells = 194961 (0.9998394% above average 193031)
Max number of processor patches = 7 (51.351351% above average 4.625)
Max number of faces between processors = 6995 (48.328783% above average 4715.875)

Time = 0

Processor 0: field transfer
Processor 1: field transfer
Processor 2: field transfer
Processor 3: field transfer
Processor 4: field transfer
Processor 5: field transfer
Processor 6: field transfer
Processor 7: field transfer
Processor 8: field transfer
Processor 9: field transfer
Processor 10: field transfer
Processor 11: field transfer
Processor 12: field transfer
Processor 13: field transfer
Processor 14: field transfer
Processor 15: field transfer

End

/*---------------------------------------------------------------------------*\
| =========                 |                                                 |
| \\      /  F ield         | OpenFOAM: The Open Source CFD Toolbox           |
|  \\    /   O peration     | Version:  5.x                                   |
|   \\  /    A nd           | Web:      www.OpenFOAM.org                      |
|    \\/     M anipulation  |                                                 |
\*---------------------------------------------------------------------------*/
/*   Windows 32 and 64 bit porting by blueCAPE: http://www.bluecape.com.pt   *\
|  Based on Windows porting (2.0.x v4) by Symscape: http://www.symscape.com   |
\*---------------------------------------------------------------------------*/
Build  : 5.x-963176928289
Exec   : simpleFoam -parallel
Date   : Mar 08 2022
Time   : 20:03:37
Host   : "AR-128-THREAD"
PID    : 17260
I/O    : uncollated
Case   : E:/CFDGAN/Gen_Box/41_Case_Type_Scatter_Height_40_Dist_30_dir_60/60
nProcs : 16
Slaves : 
15
(
"AR-128-THREAD.22732"
"AR-128-THREAD.12916"
"AR-128-THREAD.26084"
"AR-128-THREAD.34568"
"AR-128-THREAD.21132"
"AR-128-THREAD.35632"
"AR-128-THREAD.32944"
"AR-128-THREAD.37060"
"AR-128-THREAD.33508"
"AR-128-THREAD.35920"
"AR-128-THREAD.6276"
"AR-128-THREAD.32180"
"AR-128-THREAD.36992"
"AR-128-THREAD.37404"
"AR-128-THREAD.26580"
)

Pstream initialized with:
    floatTransfer      : 0
    nProcsSimpleSum    : 0
    commsType          : nonBlocking
    polling iterations : 0
SigFpe : Enabling floating point exception trapping (FOAM_SIGFPE).
fileModificationChecking : Monitoring run-time modified files using timeStampMaster (fileModificationSkew 10)
allowSystemOperations : Allowing user-supplied system call operations

// * * * * * * * * * * * * * * * * * * * * * * * * * * * * * * * * * * * * * //
Create time

Create mesh for time = 0


SIMPLE: convergence criteria
    field p	 tolerance 1e-005
    field U	 tolerance 0.0001

Reading field p

Reading field U

Reading/calculating face flux field phi

Selecting incompressible transport model Newtonian
Selecting turbulence model type RAS
Selecting RAS turbulence model RNGkEpsilon
RAS
{
    RASModel        RNGkEpsilon;
    turbulence      on;
    printCoeffs     on;
    Cmu             0.0845;
    C1              1.42;
    C2              1.68;
    C3              0;
    sigmak          0.71942;
    sigmaEps        0.71942;
    eta0            4.38;
    beta            0.012;
}

No MRF models present

No finite volume options present


Starting time loop

Time = 1

DILUPBiCGStab:  Solving for Ux, Initial residual = 1, Final residual = 3.0792783e-008, No Iterations 1
DILUPBiCGStab:  Solving for Uy, Initial residual = 1, Final residual = 3.0790278e-008, No Iterations 1
DILUPBiCGStab:  Solving for Uz, Initial residual = 1, Final residual = 9.4863233e-005, No Iterations 1
DICPCG:  Solving for p, Initial residual = 1, Final residual = 0.0099076615, No Iterations 119
time step continuity errors : sum local = 5.1835404e-005, global = 6.8006364e-008, cumulative = 6.8006364e-008
DILUPBiCGStab:  Solving for epsilon, Initial residual = 0.13570887, Final residual = 1.8519787e-005, No Iterations 1
DILUPBiCGStab:  Solving for k, Initial residual = 1, Final residual = 0.00015559741, No Iterations 1
ExecutionTime = 21.342 s  ClockTime = 21 s

Time = 2

DILUPBiCGStab:  Solving for Ux, Initial residual = 0.014728565, Final residual = 9.9910158e-005, No Iterations 1
DILUPBiCGStab:  Solving for Uy, Initial residual = 0.014884055, Final residual = 0.00010259489, No Iterations 1
DILUPBiCGStab:  Solving for Uz, Initial residual = 0.13926539, Final residual = 0.002552983, No Iterations 1
DICPCG:  Solving for p, Initial residual = 0.99885506, Final residual = 0.0095017662, No Iterations 567
time step continuity errors : sum local = 3.8684343e-005, global = -4.2789057e-007, cumulative = -3.598842e-007
DILUPBiCGStab:  Solving for epsilon, Initial residual = 0.12914023, Final residual = 1.5609474e-005, No Iterations 1
DILUPBiCGStab:  Solving for k, Initial residual = 0.73880873, Final residual = 0.00012423859, No Iterations 1
ExecutionTime = 77.225 s  ClockTime = 77 s

Time = 3

DILUPBiCGStab:  Solving for Ux, Initial residual = 0.076785543, Final residual = 0.0020209769, No Iterations 1
DILUPBiCGStab:  Solving for Uy, Initial residual = 0.076786816, Final residual = 0.0020256685, No Iterations 1
DILUPBiCGStab:  Solving for Uz, Initial residual = 0.25177673, Final residual = 0.0052088481, No Iterations 1
DICPCG:  Solving for p, Initial residual = 0.052262597, Final residual = 0.00051206334, No Iterations 115
time step continuity errors : sum local = 8.6936945e-005, global = 3.7440472e-007, cumulative = 1.4520519e-008
DILUPBiCGStab:  Solving for epsilon, Initial residual = 0.14184288, Final residual = 1.8749354e-005, No Iterations 1
DILUPBiCGStab:  Solving for k, Initial residual = 0.32769625, Final residual = 5.5388212e-005, No Iterations 1
ExecutionTime = 92.746 s  ClockTime = 93 s

Time = 4

DILUPBiCGStab:  Solving for Ux, Initial residual = 0.267527, Final residual = 0.0069331617, No Iterations 1
DILUPBiCGStab:  Solving for Uy, Initial residual = 0.26014162, Final residual = 0.0068037348, No Iterations 1
DILUPBiCGStab:  Solving for Uz, Initial residual = 0.22565269, Final residual = 0.004470958, No Iterations 1
DICPCG:  Solving for p, Initial residual = 0.036930612, Final residual = 0.000338392, No Iterations 141
time step continuity errors : sum local = 7.3684464e-005, global = -2.7931308e-008, cumulative = -1.3410788e-008
DILUPBiCGStab:  Solving for epsilon, Initial residual = 0.14630684, Final residual = 1.93723e-005, No Iterations 1
DILUPBiCGStab:  Solving for k, Initial residual = 0.18723125, Final residual = 3.2365536e-005, No Iterations 1
ExecutionTime = 110.41 s  ClockTime = 110 s

Time = 5

DILUPBiCGStab:  Solving for Ux, Initial residual = 0.24948747, Final residual = 0.0065381843, No Iterations 1
DILUPBiCGStab:  Solving for Uy, Initial residual = 0.24526138, Final residual = 0.0065250564, No Iterations 1
DILUPBiCGStab:  Solving for Uz, Initial residual = 0.15400926, Final residual = 0.0050610839, No Iterations 1
DICPCG:  Solving for p, Initial residual = 0.046665326, Final residual = 0.00045476822, No Iterations 145
time step continuity errors : sum local = 7.9740102e-005, global = 1.0156595e-006, cumulative = 1.0022487e-006
DILUPBiCGStab:  Solving for epsilon, Initial residual = 0.15137506, Final residual = 2.0150993e-005, No Iterations 1
DILUPBiCGStab:  Solving for k, Initial residual = 0.12374744, Final residual = 2.1812024e-005, No Iterations 1
ExecutionTime = 128.241 s  ClockTime = 128 s

Time = 6

DILUPBiCGStab:  Solving for Ux, Initial residual = 0.11621828, Final residual = 0.0030532654, No Iterations 1
DILUPBiCGStab:  Solving for Uy, Initial residual = 0.11346707, Final residual = 0.0030668323, No Iterations 1
DILUPBiCGStab:  Solving for Uz, Initial residual = 0.16117434, Final residual = 0.0044562187, No Iterations 1
DICPCG:  Solving for p, Initial residual = 0.093310218, Final residual = 0.00091580577, No Iterations 146
time step continuity errors : sum local = 6.9978789e-005, global = 7.0319708e-007, cumulative = 1.7054457e-006
DILUPBiCGStab:  Solving for epsilon, Initial residual = 0.15717464, Final residual = 2.1010454e-005, No Iterations 1
DILUPBiCGStab:  Solving for k, Initial residual = 0.088682042, Final residual = 1.5982525e-005, No Iterations 1
ExecutionTime = 146.814 s  ClockTime = 147 s

Time = 7

DILUPBiCGStab:  Solving for Ux, Initial residual = 0.056835321, Final residual = 0.0014720521, No Iterations 1
DILUPBiCGStab:  Solving for Uy, Initial residual = 0.054938819, Final residual = 0.0014038566, No Iterations 1
DILUPBiCGStab:  Solving for Uz, Initial residual = 0.17750905, Final residual = 0.0039557317, No Iterations 1
DICPCG:  Solving for p, Initial residual = 0.17726074, Final residual = 0.0015766509, No Iterations 141
time step continuity errors : sum local = 6.2450155e-005, global = 4.5202604e-007, cumulative = 2.1574718e-006
DILUPBiCGStab:  Solving for epsilon, Initial residual = 0.16387988, Final residual = 2.1991056e-005, No Iterations 1
DILUPBiCGStab:  Solving for k, Initial residual = 0.066815879, Final residual = 1.2601894e-005, No Iterations 1
ExecutionTime = 163.776 s  ClockTime = 164 s

Time = 8

DILUPBiCGStab:  Solving for Ux, Initial residual = 0.12026319, Final residual = 0.0031751693, No Iterations 1
DILUPBiCGStab:  Solving for Uy, Initial residual = 0.11657719, Final residual = 0.0030988724, No Iterations 1
DILUPBiCGStab:  Solving for Uz, Initial residual = 0.14534947, Final residual = 0.0032001691, No Iterations 1
DICPCG:  Solving for p, Initial residual = 0.071241341, Final residual = 0.00069305637, No Iterations 88
time step continuity errors : sum local = 6.4053452e-005, global = 8.037938e-007, cumulative = 2.9612656e-006
DILUPBiCGStab:  Solving for epsilon, Initial residual = 0.1717003, Final residual = 2.313322e-005, No Iterations 1
DILUPBiCGStab:  Solving for k, Initial residual = 0.052048769, Final residual = 1.0489254e-005, No Iterations 1
ExecutionTime = 176.786 s  ClockTime = 177 s

Time = 9

DILUPBiCGStab:  Solving for Ux, Initial residual = 0.10344396, Final residual = 0.0027845644, No Iterations 1
DILUPBiCGStab:  Solving for Uy, Initial residual = 0.10090562, Final residual = 0.0027506061, No Iterations 1
DILUPBiCGStab:  Solving for Uz, Initial residual = 0.10641965, Final residual = 0.0030880204, No Iterations 1
DICPCG:  Solving for p, Initial residual = 0.0570546, Final residual = 0.00051988206, No Iterations 140
time step continuity errors : sum local = 4.8768634e-005, global = -5.8806203e-007, cumulative = 2.3732036e-006
DILUPBiCGStab:  Solving for epsilon, Initial residual = 0.18090703, Final residual = 2.4482312e-005, No Iterations 1
DILUPBiCGStab:  Solving for k, Initial residual = 0.041519008, Final residual = 8.9610065e-006, No Iterations 1
ExecutionTime = 194.211 s  ClockTime = 194 s

Time = 10

DILUPBiCGStab:  Solving for Ux, Initial residual = 0.057575465, Final residual = 0.0015589722, No Iterations 1
DILUPBiCGStab:  Solving for Uy, Initial residual = 0.056413708, Final residual = 0.0015578332, No Iterations 1
DILUPBiCGStab:  Solving for Uz, Initial residual = 0.092167764, Final residual = 0.0039056986, No Iterations 1
DICPCG:  Solving for p, Initial residual = 0.060798244, Final residual = 0.0005782792, No Iterations 146
time step continuity errors : sum local = 3.3276633e-005, global = -5.5959149e-007, cumulative = 1.8136121e-006
DILUPBiCGStab:  Solving for epsilon, Initial residual = 0.19200765, Final residual = 2.6094561e-005, No Iterations 1
DILUPBiCGStab:  Solving for k, Initial residual = 0.033701097, Final residual = 7.8892689e-006, No Iterations 1
ExecutionTime = 212.398 s  ClockTime = 212 s

Time = 11

DILUPBiCGStab:  Solving for Ux, Initial residual = 0.0075586395, Final residual = 0.00019636367, No Iterations 1
DILUPBiCGStab:  Solving for Uy, Initial residual = 0.0079259635, Final residual = 0.00022147455, No Iterations 1
DILUPBiCGStab:  Solving for Uz, Initial residual = 0.10323832, Final residual = 0.0034480913, No Iterations 1
DICPCG:  Solving for p, Initial residual = 0.27573273, Final residual = 0.0027388523, No Iterations 145
time step continuity errors : sum local = 2.735535e-005, global = -4.6765754e-007, cumulative = 1.3459545e-006
DILUPBiCGStab:  Solving for epsilon, Initial residual = 0.20571781, Final residual = 2.8075872e-005, No Iterations 1
DILUPBiCGStab:  Solving for k, Initial residual = 0.027696777, Final residual = 7.0909467e-006, No Iterations 1
ExecutionTime = 229.119 s  ClockTime = 229 s

Time = 12

DILUPBiCGStab:  Solving for Ux, Initial residual = 0.036899326, Final residual = 0.0010158532, No Iterations 1
DILUPBiCGStab:  Solving for Uy, Initial residual = 0.036272217, Final residual = 0.0010013552, No Iterations 1
DILUPBiCGStab:  Solving for Uz, Initial residual = 0.092854787, Final residual = 0.0025290225, No Iterations 1
DICPCG:  Solving for p, Initial residual = 0.084253563, Final residual = 0.00080393857, No Iterations 137
time step continuity errors : sum local = 2.7624524e-005, global = -2.3596334e-007, cumulative = 1.1099912e-006
DILUPBiCGStab:  Solving for epsilon, Initial residual = 0.22313148, Final residual = 3.0588746e-005, No Iterations 1
DILUPBiCGStab:  Solving for k, Initial residual = 0.023011055, Final residual = 6.4537369e-006, No Iterations 1
ExecutionTime = 246.078 s  ClockTime = 246 s

Time = 13

DILUPBiCGStab:  Solving for Ux, Initial residual = 0.056420899, Final residual = 0.0015518013, No Iterations 1
DILUPBiCGStab:  Solving for Uy, Initial residual = 0.055066106, Final residual = 0.0015283725, No Iterations 1
DILUPBiCGStab:  Solving for Uz, Initial residual = 0.062481777, Final residual = 0.0016792976, No Iterations 1
DICPCG:  Solving for p, Initial residual = 0.059256981, Final residual = 0.00053614299, No Iterations 136
time step continuity errors : sum local = 2.445805e-005, global = -1.3017086e-007, cumulative = 9.7982032e-007
DILUPBiCGStab:  Solving for epsilon, Initial residual = 0.24604429, Final residual = 3.3897189e-005, No Iterations 1
DILUPBiCGStab:  Solving for k, Initial residual = 0.019347621, Final residual = 5.9368457e-006, No Iterations 1
ExecutionTime = 261.426 s  ClockTime = 261 s

Time = 14

DILUPBiCGStab:  Solving for Ux, Initial residual = 0.047597169, Final residual = 0.0013077392, No Iterations 1
DILUPBiCGStab:  Solving for Uy, Initial residual = 0.046335113, Final residual = 0.0012914765, No Iterations 1
DILUPBiCGStab:  Solving for Uz, Initial residual = 0.039744524, Final residual = 0.0013623734, No Iterations 1
DICPCG:  Solving for p, Initial residual = 0.057066213, Final residual = 0.00052658699, No Iterations 143
time step continuity errors : sum local = 1.875256e-005, global = 6.1697166e-007, cumulative = 1.596792e-006
DILUPBiCGStab:  Solving for epsilon, Initial residual = 0.27771097, Final residual = 3.8459462e-005, No Iterations 1
DILUPBiCGStab:  Solving for k, Initial residual = 0.016419912, Final residual = 5.4965529e-006, No Iterations 1
ExecutionTime = 277.717 s  ClockTime = 278 s

Time = 15

DILUPBiCGStab:  Solving for Ux, Initial residual = 0.019391308, Final residual = 0.00053134657, No Iterations 1
DILUPBiCGStab:  Solving for Uy, Initial residual = 0.019022056, Final residual = 0.0005363819, No Iterations 1
DILUPBiCGStab:  Solving for Uz, Initial residual = 0.043374761, Final residual = 0.0011789972, No Iterations 1
DICPCG:  Solving for p, Initial residual = 0.091963537, Final residual = 0.00084257729, No Iterations 147
time step continuity errors : sum local = 1.2627548e-005, global = 3.1803529e-007, cumulative = 1.9148273e-006
DILUPBiCGStab:  Solving for epsilon, Initial residual = 0.32455098, Final residual = 4.5178202e-005, No Iterations 1
DILUPBiCGStab:  Solving for k, Initial residual = 0.014041818, Final residual = 5.1244443e-006, No Iterations 1
ExecutionTime = 293.127 s  ClockTime = 293 s

Time = 16

DILUPBiCGStab:  Solving for Ux, Initial residual = 0.012274362, Final residual = 0.00033364407, No Iterations 1
DILUPBiCGStab:  Solving for Uy, Initial residual = 0.012378155, Final residual = 0.00033669385, No Iterations 1
DILUPBiCGStab:  Solving for Uz, Initial residual = 0.04977132, Final residual = 0.0011644071, No Iterations 1
DICPCG:  Solving for p, Initial residual = 0.12794092, Final residual = 0.0012289031, No Iterations 142
time step continuity errors : sum local = 1.2901005e-005, global = 2.4614741e-007, cumulative = 2.1609747e-006
DILUPBiCGStab:  Solving for epsilon, Initial residual = 0.40109783, Final residual = 5.6110658e-005, No Iterations 1
DILUPBiCGStab:  Solving for k, Initial residual = 0.012090572, Final residual = 4.818076e-006, No Iterations 1
ExecutionTime = 308.716 s  ClockTime = 309 s

Time = 17

DILUPBiCGStab:  Solving for Ux, Initial residual = 0.02548958, Final residual = 0.0007101133, No Iterations 1
DILUPBiCGStab:  Solving for Uy, Initial residual = 0.025283562, Final residual = 0.00071029924, No Iterations 1
DILUPBiCGStab:  Solving for Uz, Initial residual = 0.046996043, Final residual = 0.0010888934, No Iterations 1
DICPCG:  Solving for p, Initial residual = 0.0662685, Final residual = 0.00065381886, No Iterations 112
time step continuity errors : sum local = 1.3522005e-005, global = -9.8419052e-007, cumulative = 1.1767842e-006
DILUPBiCGStab:  Solving for epsilon, Initial residual = 0.54893758, Final residual = 7.7154184e-005, No Iterations 1
DILUPBiCGStab:  Solving for k, Initial residual = 0.01046339, Final residual = 4.5631295e-006, No Iterations 1
ExecutionTime = 321.93 s  ClockTime = 322 s

Time = 18

DILUPBiCGStab:  Solving for Ux, Initial residual = 0.02458835, Final residual = 0.00068719946, No Iterations 1
DILUPBiCGStab:  Solving for Uy, Initial residual = 0.024417145, Final residual = 0.00069242923, No Iterations 1
DILUPBiCGStab:  Solving for Uz, Initial residual = 0.04089388, Final residual = 0.0010376274, No Iterations 1
DICPCG:  Solving for p, Initial residual = 0.057286594, Final residual = 0.00050127975, No Iterations 141
time step continuity errors : sum local = 1.0149175e-005, global = -7.9806207e-008, cumulative = 1.096978e-006
DILUPBiCGStab:  Solving for epsilon, Initial residual = 0.78189308, Final residual = 0.00011044014, No Iterations 1
DILUPBiCGStab:  Solving for k, Initial residual = 0.0090908494, Final residual = 4.3551795e-006, No Iterations 1
ExecutionTime = 337.57 s  ClockTime = 338 s

Time = 19

DILUPBiCGStab:  Solving for Ux, Initial residual = 0.014517578, Final residual = 0.00040663491, No Iterations 1
DILUPBiCGStab:  Solving for Uy, Initial residual = 0.014554341, Final residual = 0.00041752771, No Iterations 1
DILUPBiCGStab:  Solving for Uz, Initial residual = 0.035449896, Final residual = 0.0011057116, No Iterations 1
DICPCG:  Solving for p, Initial residual = 0.068109986, Final residual = 0.00067400737, No Iterations 145
time step continuity errors : sum local = 8.3201382e-006, global = -3.3552773e-007, cumulative = 7.6145023e-007
DILUPBiCGStab:  Solving for epsilon, Initial residual = 0.8061995, Final residual = 0.00011445192, No Iterations 1
DILUPBiCGStab:  Solving for k, Initial residual = 0.0079463533, Final residual = 4.1725137e-006, No Iterations 1
ExecutionTime = 353.018 s  ClockTime = 353 s

Time = 20

DILUPBiCGStab:  Solving for Ux, Initial residual = 0.0030500039, Final residual = 8.487106e-005, No Iterations 1
DILUPBiCGStab:  Solving for Uy, Initial residual = 0.0035611245, Final residual = 0.00010234364, No Iterations 1
DILUPBiCGStab:  Solving for Uz, Initial residual = 0.03289809, Final residual = 0.0010962276, No Iterations 1
DICPCG:  Solving for p, Initial residual = 0.28984887, Final residual = 0.0027883119, No Iterations 144
time step continuity errors : sum local = 7.291458e-006, global = -2.3003087e-007, cumulative = 5.3141936e-007
DILUPBiCGStab:  Solving for epsilon, Initial residual = 0.68815288, Final residual = 9.8221416e-005, No Iterations 1
DILUPBiCGStab:  Solving for k, Initial residual = 0.0069920872, Final residual = 4.0068646e-006, No Iterations 1
ExecutionTime = 368.266 s  ClockTime = 368 s

Time = 21

DILUPBiCGStab:  Solving for Ux, Initial residual = 0.010190045, Final residual = 0.0003000629, No Iterations 1
DILUPBiCGStab:  Solving for Uy, Initial residual = 0.01034935, Final residual = 0.00030392853, No Iterations 1
DILUPBiCGStab:  Solving for Uz, Initial residual = 0.028847521, Final residual = 0.00095028404, No Iterations 1
DICPCG:  Solving for p, Initial residual = 0.088316263, Final residual = 0.00080753276, No Iterations 138
time step continuity errors : sum local = 6.9199192e-006, global = -5.9079701e-008, cumulative = 4.7233966e-007
DILUPBiCGStab:  Solving for epsilon, Initial residual = 0.37846673, Final residual = 5.4322918e-005, No Iterations 1
DILUPBiCGStab:  Solving for k, Initial residual = 0.0061887495, Final residual = 3.8527078e-006, No Iterations 1
ExecutionTime = 383.339 s  ClockTime = 383 s

Time = 22

DILUPBiCGStab:  Solving for Ux, Initial residual = 0.013334138, Final residual = 0.00038928705, No Iterations 1
DILUPBiCGStab:  Solving for Uy, Initial residual = 0.013405492, Final residual = 0.0003931441, No Iterations 1
DILUPBiCGStab:  Solving for Uz, Initial residual = 0.023508007, Final residual = 0.00076614088, No Iterations 1
DICPCG:  Solving for p, Initial residual = 0.063708708, Final residual = 0.00063052256, No Iterations 137
time step continuity errors : sum local = 6.6430452e-006, global = -5.256219e-008, cumulative = 4.1977747e-007
DILUPBiCGStab:  Solving for epsilon, Initial residual = 0.24319679, Final residual = 3.5105994e-005, No Iterations 1
DILUPBiCGStab:  Solving for k, Initial residual = 0.0055052298, Final residual = 3.7070446e-006, No Iterations 1
ExecutionTime = 398.608 s  ClockTime = 399 s

Time = 23

DILUPBiCGStab:  Solving for Ux, Initial residual = 0.010739309, Final residual = 0.00031689272, No Iterations 1
DILUPBiCGStab:  Solving for Uy, Initial residual = 0.010853611, Final residual = 0.00032308698, No Iterations 1
DILUPBiCGStab:  Solving for Uz, Initial residual = 0.021426993, Final residual = 0.00062567634, No Iterations 1
DICPCG:  Solving for p, Initial residual = 0.063859781, Final residual = 0.00061314573, No Iterations 142
time step continuity errors : sum local = 5.051033e-006, global = 8.7021843e-008, cumulative = 5.0679931e-007
DILUPBiCGStab:  Solving for epsilon, Initial residual = 0.1696173, Final residual = 2.46187e-005, No Iterations 1
DILUPBiCGStab:  Solving for k, Initial residual = 0.0049201797, Final residual = 3.5667867e-006, No Iterations 1
ExecutionTime = 414.218 s  ClockTime = 414 s

Time = 24

DILUPBiCGStab:  Solving for Ux, Initial residual = 0.0051482313, Final residual = 0.0001588747, No Iterations 1
DILUPBiCGStab:  Solving for Uy, Initial residual = 0.0053921501, Final residual = 0.00016863525, No Iterations 1
DILUPBiCGStab:  Solving for Uz, Initial residual = 0.022593956, Final residual = 0.00058741614, No Iterations 1
DICPCG:  Solving for p, Initial residual = 0.11855316, Final residual = 0.0011290158, No Iterations 143
time step continuity errors : sum local = 4.406321e-006, global = 1.5166238e-007, cumulative = 6.584617e-007
DILUPBiCGStab:  Solving for epsilon, Initial residual = 0.12399569, Final residual = 1.8093881e-005, No Iterations 1
DILUPBiCGStab:  Solving for k, Initial residual = 0.0044141267, Final residual = 3.43649e-006, No Iterations 1
ExecutionTime = 429.817 s  ClockTime = 430 s

Time = 25

DILUPBiCGStab:  Solving for Ux, Initial residual = 0.0042983888, Final residual = 0.00012884379, No Iterations 1
DILUPBiCGStab:  Solving for Uy, Initial residual = 0.0046135872, Final residual = 0.00014119869, No Iterations 1
DILUPBiCGStab:  Solving for Uz, Initial residual = 0.023354991, Final residual = 0.00058343041, No Iterations 1
DICPCG:  Solving for p, Initial residual = 0.12095818, Final residual = 0.0011344903, No Iterations 140
time step continuity errors : sum local = 4.2382687e-006, global = 6.1339652e-008, cumulative = 7.1980135e-007
DILUPBiCGStab:  Solving for epsilon, Initial residual = 0.093104793, Final residual = 1.366131e-005, No Iterations 1
DILUPBiCGStab:  Solving for k, Initial residual = 0.0039781192, Final residual = 3.3205023e-006, No Iterations 1
ExecutionTime = 445.259 s  ClockTime = 445 s

Time = 26

DILUPBiCGStab:  Solving for Ux, Initial residual = 0.0067952625, Final residual = 0.00020362553, No Iterations 1
DILUPBiCGStab:  Solving for Uy, Initial residual = 0.0070339243, Final residual = 0.00021486313, No Iterations 1
DILUPBiCGStab:  Solving for Uz, Initial residual = 0.022340366, Final residual = 0.00056201858, No Iterations 1
DICPCG:  Solving for p, Initial residual = 0.075398435, Final residual = 0.00073026623, No Iterations 117
time step continuity errors : sum local = 4.1406755e-006, global = -1.7220175e-007, cumulative = 5.475996e-007
DILUPBiCGStab:  Solving for epsilon, Initial residual = 0.071117269, Final residual = 1.0496516e-005, No Iterations 1
DILUPBiCGStab:  Solving for k, Initial residual = 0.00360577, Final residual = 3.2211679e-006, No Iterations 1
ExecutionTime = 459.01 s  ClockTime = 459 s

Time = 27

DILUPBiCGStab:  Solving for Ux, Initial residual = 0.0065977198, Final residual = 0.00019897691, No Iterations 1
DILUPBiCGStab:  Solving for Uy, Initial residual = 0.0068475561, Final residual = 0.00021129023, No Iterations 1
DILUPBiCGStab:  Solving for Uz, Initial residual = 0.020321783, Final residual = 0.00054007403, No Iterations 1
DICPCG:  Solving for p, Initial residual = 0.067497356, Final residual = 0.00062284741, No Iterations 139
time step continuity errors : sum local = 3.3822751e-006, global = -2.7144328e-008, cumulative = 5.2045527e-007
DILUPBiCGStab:  Solving for epsilon, Initial residual = 0.055025104, Final residual = 8.1711698e-006, No Iterations 1
DILUPBiCGStab:  Solving for k, Initial residual = 0.0032848795, Final residual = 3.1394938e-006, No Iterations 1
ExecutionTime = 474.308 s  ClockTime = 474 s

Time = 28

DILUPBiCGStab:  Solving for Ux, Initial residual = 0.0044987417, Final residual = 0.00014030401, No Iterations 1
DILUPBiCGStab:  Solving for Uy, Initial residual = 0.0048003316, Final residual = 0.0001539355, No Iterations 1
DILUPBiCGStab:  Solving for Uz, Initial residual = 0.018367058, Final residual = 0.0005218483, No Iterations 1
DICPCG:  Solving for p, Initial residual = 0.07858973, Final residual = 0.00072340676, No Iterations 141
time step continuity errors : sum local = 2.706934e-006, global = -2.7542222e-008, cumulative = 4.9291305e-007
DILUPBiCGStab:  Solving for epsilon, Initial residual = 0.042960403, Final residual = 6.4185316e-006, No Iterations 1
DILUPBiCGStab:  Solving for k, Initial residual = 0.0030062936, Final residual = 3.072046e-006, No Iterations 1
ExecutionTime = 487.281 s  ClockTime = 487 s

Time = 29

DILUPBiCGStab:  Solving for Ux, Initial residual = 0.0027666296, Final residual = 9.4785725e-005, No Iterations 1
DILUPBiCGStab:  Solving for Uy, Initial residual = 0.0032214703, Final residual = 0.0001112985, No Iterations 1
DILUPBiCGStab:  Solving for Uz, Initial residual = 0.017005195, Final residual = 0.00050403588, No Iterations 1
DICPCG:  Solving for p, Initial residual = 0.1576706, Final residual = 0.0014756494, No Iterations 140
time step continuity errors : sum local = 2.5674533e-006, global = -3.3608363e-008, cumulative = 4.5930468e-007
DILUPBiCGStab:  Solving for epsilon, Initial residual = 0.033742228, Final residual = 5.0712869e-006, No Iterations 1
DILUPBiCGStab:  Solving for k, Initial residual = 0.0027618429, Final residual = 3.0156249e-006, No Iterations 1
ExecutionTime = 498.477 s  ClockTime = 499 s

Time = 30

DILUPBiCGStab:  Solving for Ux, Initial residual = 0.0041471341, Final residual = 0.00013731398, No Iterations 1
DILUPBiCGStab:  Solving for Uy, Initial residual = 0.004446608, Final residual = 0.00014669267, No Iterations 1
DILUPBiCGStab:  Solving for Uz, Initial residual = 0.015894586, Final residual = 0.00047755511, No Iterations 1
DICPCG:  Solving for p, Initial residual = 0.092057488, Final residual = 0.00090003693, No Iterations 120
time step continuity errors : sum local = 2.663745e-006, global = 3.7233081e-008, cumulative = 4.9653776e-007
DILUPBiCGStab:  Solving for epsilon, Initial residual = 0.026606111, Final residual = 4.0223006e-006, No Iterations 1
DILUPBiCGStab:  Solving for k, Initial residual = 0.0025466156, Final residual = 2.9655948e-006, No Iterations 1
ExecutionTime = 508.602 s  ClockTime = 509 s

Time = 31

DILUPBiCGStab:  Solving for Ux, Initial residual = 0.004695955, Final residual = 0.00015406762, No Iterations 1
DILUPBiCGStab:  Solving for Uy, Initial residual = 0.0049626319, Final residual = 0.00016274066, No Iterations 1
DILUPBiCGStab:  Solving for Uz, Initial residual = 0.015186783, Final residual = 0.00044866097, No Iterations 1
DICPCG:  Solving for p, Initial residual = 0.076510088, Final residual = 0.00075605171, No Iterations 127
time step continuity errors : sum local = 2.4807675e-006, global = -7.356538e-008, cumulative = 4.2297238e-007
DILUPBiCGStab:  Solving for epsilon, Initial residual = 0.02103175, Final residual = 3.1987587e-006, No Iterations 1
DILUPBiCGStab:  Solving for k, Initial residual = 0.0023581052, Final residual = 2.9203579e-006, No Iterations 1
ExecutionTime = 519.358 s  ClockTime = 519 s

Time = 32

DILUPBiCGStab:  Solving for Ux, Initial residual = 0.0041777922, Final residual = 0.00014046328, No Iterations 1
DILUPBiCGStab:  Solving for Uy, Initial residual = 0.0044581572, Final residual = 0.00015042637, No Iterations 1
DILUPBiCGStab:  Solving for Uz, Initial residual = 0.014922638, Final residual = 0.00042566905, No Iterations 1
DICPCG:  Solving for p, Initial residual = 0.079003844, Final residual = 0.00078117739, No Iterations 137
time step continuity errors : sum local = 2.1528281e-006, global = 7.7282432e-009, cumulative = 4.3070063e-007
DILUPBiCGStab:  Solving for epsilon, Initial residual = 0.016651074, Final residual = 2.54906e-006, No Iterations 1
DILUPBiCGStab:  Solving for k, Initial residual = 0.0021936643, Final residual = 2.8784237e-006, No Iterations 1
ExecutionTime = 530.589 s  ClockTime = 531 s

Time = 33

DILUPBiCGStab:  Solving for Ux, Initial residual = 0.003204338, Final residual = 0.00011398272, No Iterations 1
DILUPBiCGStab:  Solving for Uy, Initial residual = 0.0035709335, Final residual = 0.00012787203, No Iterations 1
DILUPBiCGStab:  Solving for Uz, Initial residual = 0.014909168, Final residual = 0.00041431449, No Iterations 1
DICPCG:  Solving for p, Initial residual = 0.1037928, Final residual = 0.00099867042, No Iterations 138
time step continuity errors : sum local = 1.8495132e-006, global = -2.8099078e-009, cumulative = 4.2789072e-007
DILUPBiCGStab:  Solving for epsilon, Initial residual = 0.013193436, Final residual = 2.0339639e-006, No Iterations 1
DILUPBiCGStab:  Solving for k, Initial residual = 0.0020492189, Final residual = 2.8402196e-006, No Iterations 1
ExecutionTime = 542.397 s  ClockTime = 542 s

Time = 34

DILUPBiCGStab:  Solving for Ux, Initial residual = 0.0030778012, Final residual = 0.00011007447, No Iterations 1
DILUPBiCGStab:  Solving for Uy, Initial residual = 0.0034888865, Final residual = 0.00012687002, No Iterations 1
DILUPBiCGStab:  Solving for Uz, Initial residual = 0.014742012, Final residual = 0.00040875481, No Iterations 1
DICPCG:  Solving for p, Initial residual = 0.087505221, Final residual = 0.0008105061, No Iterations 134
time step continuity errors : sum local = 1.7070016e-006, global = -6.2337606e-009, cumulative = 4.2165696e-007
DILUPBiCGStab:  Solving for epsilon, Initial residual = 0.010459078, Final residual = 1.6240577e-006, No Iterations 1
DILUPBiCGStab:  Solving for k, Initial residual = 0.0019213748, Final residual = 2.8040721e-006, No Iterations 1
ExecutionTime = 553.755 s  ClockTime = 554 s

Time = 35

DILUPBiCGStab:  Solving for Ux, Initial residual = 0.0034342818, Final residual = 0.00011990745, No Iterations 1
DILUPBiCGStab:  Solving for Uy, Initial residual = 0.0038095003, Final residual = 0.00013608175, No Iterations 1
DILUPBiCGStab:  Solving for Uz, Initial residual = 0.014291484, Final residual = 0.00040534753, No Iterations 1
DICPCG:  Solving for p, Initial residual = 0.070986868, Final residual = 0.00068059665, No Iterations 111
time step continuity errors : sum local = 1.6834669e-006, global = -4.7878748e-008, cumulative = 3.7377821e-007
DILUPBiCGStab:  Solving for epsilon, Initial residual = 0.0082938406, Final residual = 1.2971591e-006, No Iterations 1
DILUPBiCGStab:  Solving for k, Initial residual = 0.001806791, Final residual = 2.7683691e-006, No Iterations 1
ExecutionTime = 563.982 s  ClockTime = 564 s

Time = 36

DILUPBiCGStab:  Solving for Ux, Initial residual = 0.0034076676, Final residual = 0.0001202708, No Iterations 1
DILUPBiCGStab:  Solving for Uy, Initial residual = 0.0037949051, Final residual = 0.00013730743, No Iterations 1
DILUPBiCGStab:  Solving for Uz, Initial residual = 0.013681333, Final residual = 0.00040191622, No Iterations 1
DICPCG:  Solving for p, Initial residual = 0.067393492, Final residual = 0.00063959579, No Iterations 130
time step continuity errors : sum local = 1.5350159e-006, global = 3.9799995e-008, cumulative = 4.135782e-007
DILUPBiCGStab:  Solving for epsilon, Initial residual = 0.0065782927, Final residual = 1.0367392e-006, No Iterations 1
DILUPBiCGStab:  Solving for k, Initial residual = 0.0017044169, Final residual = 2.7332486e-006, No Iterations 1
ExecutionTime = 574.93 s  ClockTime = 575 s

Time = 37

DILUPBiCGStab:  Solving for Ux, Initial residual = 0.003138309, Final residual = 0.00011539139, No Iterations 1
DILUPBiCGStab:  Solving for Uy, Initial residual = 0.0035775775, Final residual = 0.00013416882, No Iterations 1
DILUPBiCGStab:  Solving for Uz, Initial residual = 0.013078931, Final residual = 0.0003969098, No Iterations 1
DICPCG:  Solving for p, Initial residual = 0.073714313, Final residual = 0.00069356725, No Iterations 134
time step continuity errors : sum local = 1.4142253e-006, global = 1.3194293e-009, cumulative = 4.1489763e-007
DILUPBiCGStab:  Solving for epsilon, Initial residual = 0.0052190745, Final residual = 8.2928571e-007, No Iterations 1
DILUPBiCGStab:  Solving for k, Initial residual = 0.001613554, Final residual = 2.7004945e-006, No Iterations 1
ExecutionTime = 586.351 s  ClockTime = 586 s

Time = 38

DILUPBiCGStab:  Solving for Ux, Initial residual = 0.0031171223, Final residual = 0.00011755754, No Iterations 1
DILUPBiCGStab:  Solving for Uy, Initial residual = 0.0035556857, Final residual = 0.00013555377, No Iterations 1
DILUPBiCGStab:  Solving for Uz, Initial residual = 0.012578481, Final residual = 0.00038822592, No Iterations 1
DICPCG:  Solving for p, Initial residual = 0.088968277, Final residual = 0.00088714865, No Iterations 130
time step continuity errors : sum local = 1.4462132e-006, global = -1.6373721e-008, cumulative = 3.9852391e-007
DILUPBiCGStab:  Solving for epsilon, Initial residual = 0.0041419584, Final residual = 6.6386504e-007, No Iterations 1
DILUPBiCGStab:  Solving for k, Initial residual = 0.0015326547, Final residual = 2.6707387e-006, No Iterations 1
ExecutionTime = 597.698 s  ClockTime = 598 s

Time = 39

DILUPBiCGStab:  Solving for Ux, Initial residual = 0.0034193795, Final residual = 0.00012787284, No Iterations 1
DILUPBiCGStab:  Solving for Uy, Initial residual = 0.0037883826, Final residual = 0.00014325483, No Iterations 1
DILUPBiCGStab:  Solving for Uz, Initial residual = 0.012205545, Final residual = 0.00037614492, No Iterations 1
DICPCG:  Solving for p, Initial residual = 0.081968057, Final residual = 0.00078800258, No Iterations 92
time step continuity errors : sum local = 1.3489119e-006, global = 1.5184768e-008, cumulative = 4.1370868e-007
DILUPBiCGStab:  Solving for epsilon, Initial residual = 0.0032881047, Final residual = 5.3176096e-007, No Iterations 1
DILUPBiCGStab:  Solving for k, Initial residual = 0.001460052, Final residual = 2.6428329e-006, No Iterations 1
ExecutionTime = 607.378 s  ClockTime = 607 s

Time = 40

DILUPBiCGStab:  Solving for Ux, Initial residual = 0.0035711549, Final residual = 0.00013383767, No Iterations 1
DILUPBiCGStab:  Solving for Uy, Initial residual = 0.0039138305, Final residual = 0.00014836771, No Iterations 1
DILUPBiCGStab:  Solving for Uz, Initial residual = 0.01195359, Final residual = 0.00036313484, No Iterations 1
DICPCG:  Solving for p, Initial residual = 0.07573937, Final residual = 0.00072738011, No Iterations 106
time step continuity errors : sum local = 1.2803692e-006, global = -3.2891271e-008, cumulative = 3.8081741e-007
DILUPBiCGStab:  Solving for epsilon, Initial residual = 0.0026113874, Final residual = 4.2616738e-007, No Iterations 1
DILUPBiCGStab:  Solving for k, Initial residual = 0.001394366, Final residual = 2.6148003e-006, No Iterations 1
ExecutionTime = 617.374 s  ClockTime = 617 s

Time = 41

DILUPBiCGStab:  Solving for Ux, Initial residual = 0.0035460061, Final residual = 0.00013517186, No Iterations 1
DILUPBiCGStab:  Solving for Uy, Initial residual = 0.0039036375, Final residual = 0.00015061434, No Iterations 1
DILUPBiCGStab:  Solving for Uz, Initial residual = 0.011789882, Final residual = 0.00035186748, No Iterations 1
DICPCG:  Solving for p, Initial residual = 0.076692278, Final residual = 0.00073991204, No Iterations 121
time step continuity errors : sum local = 1.213709e-006, global = -3.4376997e-009, cumulative = 3.7737971e-007
DILUPBiCGStab:  Solving for epsilon, Initial residual = 0.002075004, Final residual = 3.417956e-007, No Iterations 1
DILUPBiCGStab:  Solving for k, Initial residual = 0.0013345591, Final residual = 2.5869418e-006, No Iterations 1
ExecutionTime = 628.531 s  ClockTime = 629 s

Time = 42

DILUPBiCGStab:  Solving for Ux, Initial residual = 0.0034610969, Final residual = 0.00013473579, No Iterations 1
DILUPBiCGStab:  Solving for Uy, Initial residual = 0.003858433, Final residual = 0.00015192297, No Iterations 1
DILUPBiCGStab:  Solving for Uz, Initial residual = 0.011621882, Final residual = 0.00034257876, No Iterations 1
DICPCG:  Solving for p, Initial residual = 0.076943551, Final residual = 0.00074200197, No Iterations 113
time step continuity errors : sum local = 1.166837e-006, global = -1.6035552e-008, cumulative = 3.6134416e-007
DILUPBiCGStab:  Solving for epsilon, Initial residual = 0.001650323, Final residual = 2.7445501e-007, No Iterations 1
DILUPBiCGStab:  Solving for k, Initial residual = 0.0012808212, Final residual = 2.5605656e-006, No Iterations 1
ExecutionTime = 639.421 s  ClockTime = 639 s

Time = 43

DILUPBiCGStab:  Solving for Ux, Initial residual = 0.0034862145, Final residual = 0.00013726282, No Iterations 1
DILUPBiCGStab:  Solving for Uy, Initial residual = 0.0039065135, Final residual = 0.00015561708, No Iterations 1
DILUPBiCGStab:  Solving for Uz, Initial residual = 0.011410347, Final residual = 0.00033430616, No Iterations 1
DICPCG:  Solving for p, Initial residual = 0.068410171, Final residual = 0.00061968779, No Iterations 90
time step continuity errors : sum local = 1.0673327e-006, global = 3.2787546e-010, cumulative = 3.6167203e-007
DILUPBiCGStab:  Solving for epsilon, Initial residual = 0.0013138923, Final residual = 2.2062511e-007, No Iterations 1
DILUPBiCGStab:  Solving for k, Initial residual = 0.0012324497, Final residual = 2.5369269e-006, No Iterations 1
ExecutionTime = 649.232 s  ClockTime = 649 s

Time = 44

DILUPBiCGStab:  Solving for Ux, Initial residual = 0.0035759544, Final residual = 0.00014152997, No Iterations 1
DILUPBiCGStab:  Solving for Uy, Initial residual = 0.0039994066, Final residual = 0.000160156, No Iterations 1
DILUPBiCGStab:  Solving for Uz, Initial residual = 0.011152713, Final residual = 0.00032667967, No Iterations 1
DICPCG:  Solving for p, Initial residual = 0.063927903, Final residual = 0.00061476642, No Iterations 72
time step continuity errors : sum local = 1.1001964e-006, global = -1.1118839e-007, cumulative = 2.5048365e-007
DILUPBiCGStab:  Solving for epsilon, Initial residual = 0.0010472448, Final residual = 1.7768965e-007, No Iterations 1
DILUPBiCGStab:  Solving for k, Initial residual = 0.0011889448, Final residual = 2.5167606e-006, No Iterations 1
ExecutionTime = 657.846 s  ClockTime = 658 s

Time = 45

DILUPBiCGStab:  Solving for Ux, Initial residual = 0.0036517577, Final residual = 0.00014569245, No Iterations 1
DILUPBiCGStab:  Solving for Uy, Initial residual = 0.0040754696, Final residual = 0.00016420201, No Iterations 1
DILUPBiCGStab:  Solving for Uz, Initial residual = 0.010868184, Final residual = 0.00031901531, No Iterations 1
DICPCG:  Solving for p, Initial residual = 0.062206748, Final residual = 0.00061102795, No Iterations 99
time step continuity errors : sum local = 1.0841607e-006, global = 4.7037161e-008, cumulative = 2.9752081e-007
DILUPBiCGStab:  Solving for epsilon, Initial residual = 0.00083591718, Final residual = 1.4355493e-007, No Iterations 1
DILUPBiCGStab:  Solving for k, Initial residual = 0.0011491513, Final residual = 2.4998218e-006, No Iterations 1
ExecutionTime = 668.095 s  ClockTime = 668 s

Time = 46

DILUPBiCGStab:  Solving for Ux, Initial residual = 0.0037357143, Final residual = 0.00015032674, No Iterations 1
DILUPBiCGStab:  Solving for Uy, Initial residual = 0.0041509418, Final residual = 0.00016839678, No Iterations 1
DILUPBiCGStab:  Solving for Uz, Initial residual = 0.010592549, Final residual = 0.00031114296, No Iterations 1
DICPCG:  Solving for p, Initial residual = 0.0629145, Final residual = 0.00062149371, No Iterations 91
time step continuity errors : sum local = 1.0512714e-006, global = 4.9230803e-008, cumulative = 3.4675161e-007
DILUPBiCGStab:  Solving for epsilon, Initial residual = 0.00066834872, Final residual = 1.1633313e-007, No Iterations 1
DILUPBiCGStab:  Solving for k, Initial residual = 0.0011124957, Final residual = 2.4865137e-006, No Iterations 1
ExecutionTime = 677.488 s  ClockTime = 678 s

Time = 47

DILUPBiCGStab:  Solving for Ux, Initial residual = 0.0038708811, Final residual = 0.00015641583, No Iterations 1
DILUPBiCGStab:  Solving for Uy, Initial residual = 0.0042598824, Final residual = 0.00017351981, No Iterations 1
DILUPBiCGStab:  Solving for Uz, Initial residual = 0.010363661, Final residual = 0.00030327636, No Iterations 1
DICPCG:  Solving for p, Initial residual = 0.064488954, Final residual = 0.00063722765, No Iterations 89
time step continuity errors : sum local = 1.0194154e-006, global = 7.0046114e-009, cumulative = 3.5375622e-007
DILUPBiCGStab:  Solving for epsilon, Initial residual = 0.0005354889, Final residual = 9.5074074e-008, No Iterations 1
DILUPBiCGStab:  Solving for k, Initial residual = 0.0010791859, Final residual = 2.4760421e-006, No Iterations 1
ExecutionTime = 686.512 s  ClockTime = 687 s

Time = 48

DILUPBiCGStab:  Solving for Ux, Initial residual = 0.0040186597, Final residual = 0.00016292175, No Iterations 1
DILUPBiCGStab:  Solving for Uy, Initial residual = 0.0043800546, Final residual = 0.0001791513, No Iterations 1
DILUPBiCGStab:  Solving for Uz, Initial residual = 0.010171407, Final residual = 0.00029592844, No Iterations 1
DICPCG:  Solving for p, Initial residual = 0.065233931, Final residual = 0.00065045009, No Iterations 40
time step continuity errors : sum local = 1.0002361e-006, global = -1.972707e-007, cumulative = 1.5648553e-007
DILUPBiCGStab:  Solving for epsilon, Initial residual = 0.00042993779, Final residual = 7.8361222e-008, No Iterations 1
DILUPBiCGStab:  Solving for k, Initial residual = 0.0010489651, Final residual = 2.4666622e-006, No Iterations 1
ExecutionTime = 693.736 s  ClockTime = 694 s

Time = 49

DILUPBiCGStab:  Solving for Ux, Initial residual = 0.0041332198, Final residual = 0.00016836917, No Iterations 1
DILUPBiCGStab:  Solving for Uy, Initial residual = 0.0044792471, Final residual = 0.00018400458, No Iterations 1
DILUPBiCGStab:  Solving for Uz, Initial residual = 0.010004205, Final residual = 0.00028953411, No Iterations 1
DICPCG:  Solving for p, Initial residual = 0.06373649, Final residual = 0.0006195728, No Iterations 73
time step continuity errors : sum local = 9.4847739e-007, global = 4.4333474e-008, cumulative = 2.00819e-007
DILUPBiCGStab:  Solving for epsilon, Initial residual = 0.00034595569, Final residual = 6.504797e-008, No Iterations 1
DILUPBiCGStab:  Solving for k, Initial residual = 0.0010213073, Final residual = 2.4582315e-006, No Iterations 1
ExecutionTime = 702.477 s  ClockTime = 703 s

Time = 50

DILUPBiCGStab:  Solving for Ux, Initial residual = 0.0042384857, Final residual = 0.00017357545, No Iterations 1
DILUPBiCGStab:  Solving for Uy, Initial residual = 0.0045705085, Final residual = 0.00018870494, No Iterations 1
DILUPBiCGStab:  Solving for Uz, Initial residual = 0.0098562082, Final residual = 0.00028434883, No Iterations 1
DICPCG:  Solving for p, Initial residual = 0.061857775, Final residual = 0.00060967703, No Iterations 84
time step continuity errors : sum local = 9.3889712e-007, global = 3.0829818e-008, cumulative = 2.3164882e-007
DILUPBiCGStab:  Solving for epsilon, Initial residual = 0.00027905991, Final residual = 5.4287875e-008, No Iterations 1
DILUPBiCGStab:  Solving for k, Initial residual = 0.00099569846, Final residual = 2.4512273e-006, No Iterations 1
ExecutionTime = 712.287 s  ClockTime = 712 s

Time = 51

DILUPBiCGStab:  Solving for Ux, Initial residual = 0.0043325689, Final residual = 0.00017840407, No Iterations 1
DILUPBiCGStab:  Solving for Uy, Initial residual = 0.0046489241, Final residual = 0.00019270836, No Iterations 1
DILUPBiCGStab:  Solving for Uz, Initial residual = 0.0097067622, Final residual = 0.00028042353, No Iterations 1
DICPCG:  Solving for p, Initial residual = 0.059405047, Final residual = 0.00055810859, No Iterations 86
time step continuity errors : sum local = 8.7721935e-007, global = 3.7890471e-008, cumulative = 2.6953929e-007
DILUPBiCGStab:  Solving for epsilon, Initial residual = 0.00022570535, Final residual = 4.5561415e-008, No Iterations 1
DILUPBiCGStab:  Solving for k, Initial residual = 0.00097198493, Final residual = 2.4466459e-006, No Iterations 1
ExecutionTime = 721.803 s  ClockTime = 722 s

Time = 52

DILUPBiCGStab:  Solving for Ux, Initial residual = 0.0044344729, Final residual = 0.00018343503, No Iterations 1
DILUPBiCGStab:  Solving for Uy, Initial residual = 0.0047284223, Final residual = 0.00019647644, No Iterations 1
DILUPBiCGStab:  Solving for Uz, Initial residual = 0.0095584779, Final residual = 0.00027810632, No Iterations 1
DICPCG:  Solving for p, Initial residual = 0.057296941, Final residual = 0.00057058154, No Iterations 70
time step continuity errors : sum local = 9.1360027e-007, global = 9.8779995e-008, cumulative = 3.6831928e-007
DILUPBiCGStab:  Solving for epsilon, Initial residual = 0.0001831418, Final residual = 3.8633162e-008, No Iterations 1
DILUPBiCGStab:  Solving for k, Initial residual = 0.00095037818, Final residual = 2.4448299e-006, No Iterations 1
ExecutionTime = 730.574 s  ClockTime = 731 s

Time = 53

DILUPBiCGStab:  Solving for Ux, Initial residual = 0.0045469704, Final residual = 0.0001887321, No Iterations 1
DILUPBiCGStab:  Solving for Uy, Initial residual = 0.0048139738, Final residual = 0.00020027862, No Iterations 1
DILUPBiCGStab:  Solving for Uz, Initial residual = 0.009406909, Final residual = 0.0002772072, No Iterations 1
DICPCG:  Solving for p, Initial residual = 0.056067984, Final residual = 0.00053895004, No Iterations 15
time step continuity errors : sum local = 8.6831924e-007, global = -5.999895e-008, cumulative = 3.0832033e-007
DILUPBiCGStab:  Solving for epsilon, Initial residual = 0.00014909102, Final residual = 3.3109146e-008, No Iterations 1
DILUPBiCGStab:  Solving for k, Initial residual = 0.00093079842, Final residual = 2.445271e-006, No Iterations 1
ExecutionTime = 736.508 s  ClockTime = 737 s

Time = 54

DILUPBiCGStab:  Solving for Ux, Initial residual = 0.0046655005, Final residual = 0.00019423487, No Iterations 1
DILUPBiCGStab:  Solving for Uy, Initial residual = 0.00489899, Final residual = 0.00020409391, No Iterations 1
DILUPBiCGStab:  Solving for Uz, Initial residual = 0.009257862, Final residual = 0.00027722973, No Iterations 1
DICPCG:  Solving for p, Initial residual = 0.055427622, Final residual = 0.00053735038, No Iterations 71
time step continuity errors : sum local = 8.6318611e-007, global = -9.0182964e-008, cumulative = 2.1813737e-007
DILUPBiCGStab:  Solving for epsilon, Initial residual = 0.00012178181, Final residual = 2.8678839e-008, No Iterations 1
DILUPBiCGStab:  Solving for k, Initial residual = 0.00091286281, Final residual = 2.4470846e-006, No Iterations 1
ExecutionTime = 744.934 s  ClockTime = 745 s

Time = 55

DILUPBiCGStab:  Solving for Ux, Initial residual = 0.0047908369, Final residual = 0.000199944, No Iterations 1
DILUPBiCGStab:  Solving for Uy, Initial residual = 0.0049767148, Final residual = 0.00020740745, No Iterations 1
DILUPBiCGStab:  Solving for Uz, Initial residual = 0.0091258449, Final residual = 0.0002789996, No Iterations 1
DICPCG:  Solving for p, Initial residual = 0.055192415, Final residual = 0.0005089601, No Iterations 71
time step continuity errors : sum local = 8.0984369e-007, global = -7.7958186e-008, cumulative = 1.4017918e-007
DILUPBiCGStab:  Solving for epsilon, Initial residual = 9.983816e-005, Final residual = 2.5092122e-008, No Iterations 1
DILUPBiCGStab:  Solving for k, Initial residual = 0.00089625507, Final residual = 2.4498823e-006, No Iterations 1
ExecutionTime = 753.396 s  ClockTime = 753 s

Time = 56

DILUPBiCGStab:  Solving for Ux, Initial residual = 0.0049213408, Final residual = 0.00020576232, No Iterations 1
DILUPBiCGStab:  Solving for Uy, Initial residual = 0.0050537358, Final residual = 0.00021052006, No Iterations 1
DILUPBiCGStab:  Solving for Uz, Initial residual = 0.009001478, Final residual = 0.00028182731, No Iterations 1
DICPCG:  Solving for p, Initial residual = 0.055144028, Final residual = 0.00054560102, No Iterations 68
time step continuity errors : sum local = 8.5611681e-007, global = -6.7995478e-008, cumulative = 7.2183706e-008
DILUPBiCGStab:  Solving for epsilon, Initial residual = 8.2373645e-005, Final residual = 2.2471619e-008, No Iterations 1
DILUPBiCGStab:  Solving for k, Initial residual = 0.00088103853, Final residual = 2.4542395e-006, No Iterations 1
ExecutionTime = 761.512 s  ClockTime = 762 s

Time = 57

DILUPBiCGStab:  Solving for Ux, Initial residual = 0.0050499036, Final residual = 0.00021140801, No Iterations 1
DILUPBiCGStab:  Solving for Uy, Initial residual = 0.0051288022, Final residual = 0.00021341049, No Iterations 1
DILUPBiCGStab:  Solving for Uz, Initial residual = 0.008875713, Final residual = 0.00028538039, No Iterations 1
DICPCG:  Solving for p, Initial residual = 0.054968111, Final residual = 0.00053303267, No Iterations 18
time step continuity errors : sum local = 8.2650106e-007, global = -1.504771e-007, cumulative = -7.8293399e-008
DILUPBiCGStab:  Solving for epsilon, Initial residual = 6.8419254e-005, Final residual = 2.0551257e-008, No Iterations 1
DILUPBiCGStab:  Solving for k, Initial residual = 0.00086741662, Final residual = 2.4610139e-006, No Iterations 1
ExecutionTime = 767.722 s  ClockTime = 768 s

Time = 58

DILUPBiCGStab:  Solving for Ux, Initial residual = 0.0051673179, Final residual = 0.00021671958, No Iterations 1
DILUPBiCGStab:  Solving for Uy, Initial residual = 0.0051919785, Final residual = 0.00021588377, No Iterations 1
DILUPBiCGStab:  Solving for Uz, Initial residual = 0.0087628162, Final residual = 0.00028950194, No Iterations 1
DICPCG:  Solving for p, Initial residual = 0.054323872, Final residual = 0.00051719817, No Iterations 18
time step continuity errors : sum local = 7.997335e-007, global = -8.3789665e-008, cumulative = -1.6208306e-007
DILUPBiCGStab:  Solving for epsilon, Initial residual = 5.7149088e-005, Final residual = 1.9046708e-008, No Iterations 1
DILUPBiCGStab:  Solving for k, Initial residual = 0.0008552846, Final residual = 2.4702161e-006, No Iterations 1
ExecutionTime = 773.97 s  ClockTime = 774 s

Time = 59

DILUPBiCGStab:  Solving for Ux, Initial residual = 0.0052775395, Final residual = 0.00022173231, No Iterations 1
DILUPBiCGStab:  Solving for Uy, Initial residual = 0.0052517353, Final residual = 0.00021814564, No Iterations 1
DILUPBiCGStab:  Solving for Uz, Initial residual = 0.0086664234, Final residual = 0.00029430042, No Iterations 1
DICPCG:  Solving for p, Initial residual = 0.053771779, Final residual = 0.00051502976, No Iterations 19
time step continuity errors : sum local = 7.9427842e-007, global = -3.2002084e-008, cumulative = -1.9408515e-007
DILUPBiCGStab:  Solving for epsilon, Initial residual = 4.8021976e-005, Final residual = 1.786542e-008, No Iterations 1
DILUPBiCGStab:  Solving for k, Initial residual = 0.00084430945, Final residual = 2.4811808e-006, No Iterations 1
ExecutionTime = 780.044 s  ClockTime = 780 s

Time = 60

DILUPBiCGStab:  Solving for Ux, Initial residual = 0.0053697044, Final residual = 0.00022601864, No Iterations 1
DILUPBiCGStab:  Solving for Uy, Initial residual = 0.0053069407, Final residual = 0.00022017961, No Iterations 1
DILUPBiCGStab:  Solving for Uz, Initial residual = 0.0085786478, Final residual = 0.00029958998, No Iterations 1
DICPCG:  Solving for p, Initial residual = 0.053264969, Final residual = 0.00052511501, No Iterations 21
time step continuity errors : sum local = 8.0782312e-007, global = 7.3722493e-009, cumulative = -1.867129e-007
DILUPBiCGStab:  Solving for epsilon, Initial residual = 4.061728e-005, Final residual = 1.6942038e-008, No Iterations 1
DILUPBiCGStab:  Solving for k, Initial residual = 0.00083437064, Final residual = 2.4936909e-006, No Iterations 1
ExecutionTime = 786.52 s  ClockTime = 787 s

Time = 61

DILUPBiCGStab:  Solving for Ux, Initial residual = 0.0054523708, Final residual = 0.00022994966, No Iterations 1
DILUPBiCGStab:  Solving for Uy, Initial residual = 0.0053586173, Final residual = 0.0002220707, No Iterations 1
DILUPBiCGStab:  Solving for Uz, Initial residual = 0.0084926441, Final residual = 0.00030519016, No Iterations 1
DICPCG:  Solving for p, Initial residual = 0.05277622, Final residual = 0.00052640052, No Iterations 30
time step continuity errors : sum local = 8.0788343e-007, global = 5.5059452e-008, cumulative = -1.3165345e-007
DILUPBiCGStab:  Solving for epsilon, Initial residual = 3.4600032e-005, Final residual = 1.6235126e-008, No Iterations 1
DILUPBiCGStab:  Solving for k, Initial residual = 0.00082565476, Final residual = 2.5083816e-006, No Iterations 1
ExecutionTime = 792.632 s  ClockTime = 793 s

Time = 62

DILUPBiCGStab:  Solving for Ux, Initial residual = 0.0055302475, Final residual = 0.00023372162, No Iterations 1
DILUPBiCGStab:  Solving for Uy, Initial residual = 0.0054077783, Final residual = 0.00022384185, No Iterations 1
DILUPBiCGStab:  Solving for Uz, Initial residual = 0.0083950356, Final residual = 0.00031052123, No Iterations 1
DICPCG:  Solving for p, Initial residual = 0.052294065, Final residual = 0.00050196423, No Iterations 39
time step continuity errors : sum local = 7.6878131e-007, global = 1.2630927e-007, cumulative = -5.3441794e-009
DILUPBiCGStab:  Solving for epsilon, Initial residual = 2.9698717e-005, Final residual = 1.5705815e-008, No Iterations 1
DILUPBiCGStab:  Solving for k, Initial residual = 0.00081828014, Final residual = 2.5256378e-006, No Iterations 1
ExecutionTime = 799.414 s  ClockTime = 799 s

Time = 63

DILUPBiCGStab:  Solving for Ux, Initial residual = 0.0056020277, Final residual = 0.00023728928, No Iterations 1
DILUPBiCGStab:  Solving for Uy, Initial residual = 0.0054544909, Final residual = 0.0002254359, No Iterations 1
DILUPBiCGStab:  Solving for Uz, Initial residual = 0.0083019176, Final residual = 0.00031549039, No Iterations 1
DICPCG:  Solving for p, Initial residual = 0.051819848, Final residual = 0.00049485924, No Iterations 15
time step continuity errors : sum local = 7.5704046e-007, global = 1.2062479e-007, cumulative = 1.1528061e-007
DILUPBiCGStab:  Solving for epsilon, Initial residual = 2.5691099e-005, Final residual = 1.5319856e-008, No Iterations 1
DILUPBiCGStab:  Solving for k, Initial residual = 0.00081203968, Final residual = 2.5449047e-006, No Iterations 1
ExecutionTime = 805.392 s  ClockTime = 805 s

Time = 64

DILUPBiCGStab:  Solving for Ux, Initial residual = 0.0056682041, Final residual = 0.00024072087, No Iterations 1
DILUPBiCGStab:  Solving for Uy, Initial residual = 0.0054975714, Final residual = 0.00022710291, No Iterations 1
DILUPBiCGStab:  Solving for Uz, Initial residual = 0.0082071839, Final residual = 0.00032024148, No Iterations 1
DICPCG:  Solving for p, Initial residual = 0.05139492, Final residual = 0.00051363529, No Iterations 17
time step continuity errors : sum local = 7.8407552e-007, global = 1.4107428e-007, cumulative = 2.563549e-007
DILUPBiCGStab:  Solving for epsilon, Initial residual = 2.2406392e-005, Final residual = 1.5050659e-008, No Iterations 1
DILUPBiCGStab:  Solving for k, Initial residual = 0.0008066862, Final residual = 2.5653309e-006, No Iterations 1
ExecutionTime = 811.351 s  ClockTime = 811 s

Time = 65

DILUPBiCGStab:  Solving for Ux, Initial residual = 0.0057288608, Final residual = 0.00024396392, No Iterations 1
DILUPBiCGStab:  Solving for Uy, Initial residual = 0.0055391574, Final residual = 0.0002287523, No Iterations 1
DILUPBiCGStab:  Solving for Uz, Initial residual = 0.008125565, Final residual = 0.00032454926, No Iterations 1
DICPCG:  Solving for p, Initial residual = 0.050977725, Final residual = 0.00049498468, No Iterations 40
time step continuity errors : sum local = 7.5402864e-007, global = 6.8856627e-008, cumulative = 3.2521153e-007
DILUPBiCGStab:  Solving for epsilon, Initial residual = 1.9711663e-005, Final residual = 1.4886653e-008, No Iterations 1
DILUPBiCGStab:  Solving for k, Initial residual = 0.00080228652, Final residual = 2.5870587e-006, No Iterations 1
ExecutionTime = 818.452 s  ClockTime = 818 s

Time = 66

DILUPBiCGStab:  Solving for Ux, Initial residual = 0.0057876871, Final residual = 0.00024716205, No Iterations 1
DILUPBiCGStab:  Solving for Uy, Initial residual = 0.0055793295, Final residual = 0.0002303443, No Iterations 1
DILUPBiCGStab:  Solving for Uz, Initial residual = 0.0080674549, Final residual = 0.00032818075, No Iterations 1
DICPCG:  Solving for p, Initial residual = 0.05050325, Final residual = 0.00049449003, No Iterations 18
time step continuity errors : sum local = 7.526826e-007, global = 6.4006923e-008, cumulative = 3.8921845e-007
DILUPBiCGStab:  Solving for epsilon, Initial residual = 1.7497121e-005, Final residual = 1.4820338e-008, No Iterations 1
DILUPBiCGStab:  Solving for k, Initial residual = 0.00079902162, Final residual = 2.6106082e-006, No Iterations 1
ExecutionTime = 824.616 s  ClockTime = 825 s

Time = 67

DILUPBiCGStab:  Solving for Ux, Initial residual = 0.0058433493, Final residual = 0.00025025867, No Iterations 1
DILUPBiCGStab:  Solving for Uy, Initial residual = 0.0056161858, Final residual = 0.00023195056, No Iterations 1
DILUPBiCGStab:  Solving for Uz, Initial residual = 0.0079978065, Final residual = 0.00033052617, No Iterations 1
DICPCG:  Solving for p, Initial residual = 0.050102823, Final residual = 0.00049549002, No Iterations 19
time step continuity errors : sum local = 7.5270613e-007, global = -1.4843386e-008, cumulative = 3.7437506e-007
DILUPBiCGStab:  Solving for epsilon, Initial residual = 1.5673106e-005, Final residual = 1.4841724e-008, No Iterations 1
DILUPBiCGStab:  Solving for k, Initial residual = 0.00079682687, Final residual = 2.6355873e-006, No Iterations 1
ExecutionTime = 830.704 s  ClockTime = 831 s

Time = 68

DILUPBiCGStab:  Solving for Ux, Initial residual = 0.0058972314, Final residual = 0.0002533006, No Iterations 1
DILUPBiCGStab:  Solving for Uy, Initial residual = 0.005650546, Final residual = 0.00023353217, No Iterations 1
DILUPBiCGStab:  Solving for Uz, Initial residual = 0.0079338984, Final residual = 0.00033172782, No Iterations 1
DICPCG:  Solving for p, Initial residual = 0.049697656, Final residual = 0.00049237354, No Iterations 25
time step continuity errors : sum local = 7.4642193e-007, global = -1.1865269e-007, cumulative = 2.5572237e-007
DILUPBiCGStab:  Solving for epsilon, Initial residual = 1.4165653e-005, Final residual = 1.4938982e-008, No Iterations 1
DILUPBiCGStab:  Solving for k, Initial residual = 0.00079543499, Final residual = 2.6610171e-006, No Iterations 1
ExecutionTime = 836.545 s  ClockTime = 837 s

Time = 69

DILUPBiCGStab:  Solving for Ux, Initial residual = 0.0059500773, Final residual = 0.00025629647, No Iterations 1
DILUPBiCGStab:  Solving for Uy, Initial residual = 0.0056840937, Final residual = 0.00023513548, No Iterations 1
DILUPBiCGStab:  Solving for Uz, Initial residual = 0.0078738496, Final residual = 0.00033171011, No Iterations 1
DICPCG:  Solving for p, Initial residual = 0.049320679, Final residual = 0.00047061375, No Iterations 59
time step continuity errors : sum local = 7.1190445e-007, global = -1.3131222e-007, cumulative = 1.2441016e-007
DILUPBiCGStab:  Solving for epsilon, Initial residual = 1.2919265e-005, Final residual = 1.5109628e-008, No Iterations 1
DILUPBiCGStab:  Solving for k, Initial residual = 0.00079477333, Final residual = 2.6865111e-006, No Iterations 1
ExecutionTime = 844.55 s  ClockTime = 845 s

Time = 70

DILUPBiCGStab:  Solving for Ux, Initial residual = 0.0060041752, Final residual = 0.00025926918, No Iterations 1
DILUPBiCGStab:  Solving for Uy, Initial residual = 0.0057190839, Final residual = 0.00023663368, No Iterations 1
DILUPBiCGStab:  Solving for Uz, Initial residual = 0.007815065, Final residual = 0.00033040211, No Iterations 1
DICPCG:  Solving for p, Initial residual = 0.049121663, Final residual = 0.00049041897, No Iterations 28
time step continuity errors : sum local = 7.3820193e-007, global = -2.4798271e-007, cumulative = -1.2357256e-007
DILUPBiCGStab:  Solving for epsilon, Initial residual = 1.1889107e-005, Final residual = 1.5350101e-008, No Iterations 1
DILUPBiCGStab:  Solving for k, Initial residual = 0.00079499403, Final residual = 2.7124656e-006, No Iterations 1
ExecutionTime = 851.209 s  ClockTime = 851 s

Time = 71

DILUPBiCGStab:  Solving for Ux, Initial residual = 0.0060511314, Final residual = 0.00026201855, No Iterations 1
DILUPBiCGStab:  Solving for Uy, Initial residual = 0.0057496855, Final residual = 0.00023829695, No Iterations 1
DILUPBiCGStab:  Solving for Uz, Initial residual = 0.0077527494, Final residual = 0.00032796766, No Iterations 1
DICPCG:  Solving for p, Initial residual = 0.0488179, Final residual = 0.00047506961, No Iterations 65
time step continuity errors : sum local = 7.1311979e-007, global = -1.7490768e-008, cumulative = -1.4106332e-007
DILUPBiCGStab:  Solving for epsilon, Initial residual = 1.103757e-005, Final residual = 1.5646894e-008, No Iterations 1
DILUPBiCGStab:  Solving for k, Initial residual = 0.00079610992, Final residual = 2.7388531e-006, No Iterations 1
ExecutionTime = 859.75 s  ClockTime = 860 s

Time = 72

DILUPBiCGStab:  Solving for Ux, Initial residual = 0.0061009539, Final residual = 0.00026470789, No Iterations 1
DILUPBiCGStab:  Solving for Uy, Initial residual = 0.0057825525, Final residual = 0.00023993594, No Iterations 1
DILUPBiCGStab:  Solving for Uz, Initial residual = 0.0076915739, Final residual = 0.0003243454, No Iterations 1
DICPCG:  Solving for p, Initial residual = 0.048996379, Final residual = 0.00046466702, No Iterations 17
time step continuity errors : sum local = 6.8901009e-007, global = -2.2467648e-007, cumulative = -3.657398e-007
DILUPBiCGStab:  Solving for epsilon, Initial residual = 1.0332666e-005, Final residual = 1.5979975e-008, No Iterations 1
DILUPBiCGStab:  Solving for k, Initial residual = 0.0007978919, Final residual = 2.7647758e-006, No Iterations 1
ExecutionTime = 865.783 s  ClockTime = 866 s

Time = 73

DILUPBiCGStab:  Solving for Ux, Initial residual = 0.0061360394, Final residual = 0.00026694339, No Iterations 1
DILUPBiCGStab:  Solving for Uy, Initial residual = 0.0058081902, Final residual = 0.00024151258, No Iterations 1
DILUPBiCGStab:  Solving for Uz, Initial residual = 0.0076307367, Final residual = 0.00031966728, No Iterations 1
DICPCG:  Solving for p, Initial residual = 0.048664251, Final residual = 0.0004754547, No Iterations 20
time step continuity errors : sum local = 7.0333802e-007, global = -2.0792633e-007, cumulative = -5.7366613e-007
DILUPBiCGStab:  Solving for epsilon, Initial residual = 9.7495779e-006, Final residual = 9.7495779e-006, No Iterations 0
DILUPBiCGStab:  Solving for k, Initial residual = 0.00072909448, Final residual = 2.5429821e-006, No Iterations 1
ExecutionTime = 871.538 s  ClockTime = 872 s

Time = 74

DILUPBiCGStab:  Solving for Ux, Initial residual = 0.0061706939, Final residual = 0.00026909036, No Iterations 1
DILUPBiCGStab:  Solving for Uy, Initial residual = 0.0058333481, Final residual = 0.00024311616, No Iterations 1
DILUPBiCGStab:  Solving for Uz, Initial residual = 0.0075799903, Final residual = 0.00031387323, No Iterations 1
DICPCG:  Solving for p, Initial residual = 0.048391456, Final residual = 0.00046942264, No Iterations 71
time step continuity errors : sum local = 6.9269426e-007, global = -9.9896125e-008, cumulative = -6.7356225e-007
DILUPBiCGStab:  Solving for epsilon, Initial residual = 9.3948791e-006, Final residual = 9.3948791e-006, No Iterations 0
DILUPBiCGStab:  Solving for k, Initial residual = 0.00066589492, Final residual = 2.3350488e-006, No Iterations 1
ExecutionTime = 879.806 s  ClockTime = 880 s

Time = 75

DILUPBiCGStab:  Solving for Ux, Initial residual = 0.0062114948, Final residual = 0.00027128477, No Iterations 1
DILUPBiCGStab:  Solving for Uy, Initial residual = 0.0058626934, Final residual = 0.00024477319, No Iterations 1
DILUPBiCGStab:  Solving for Uz, Initial residual = 0.0075405521, Final residual = 0.0003071463, No Iterations 1
DICPCG:  Solving for p, Initial residual = 0.048498806, Final residual = 0.00048121842, No Iterations 20
time step continuity errors : sum local = 7.037213e-007, global = -1.4851862e-007, cumulative = -8.2208087e-007
DILUPBiCGStab:  Solving for epsilon, Initial residual = 9.0338022e-006, Final residual = 9.0338022e-006, No Iterations 0
DILUPBiCGStab:  Solving for k, Initial residual = 0.0006078329, Final residual = 2.1402775e-006, No Iterations 1
ExecutionTime = 885.852 s  ClockTime = 886 s

Time = 76

DILUPBiCGStab:  Solving for Ux, Initial residual = 0.006242731, Final residual = 0.00027308552, No Iterations 1
DILUPBiCGStab:  Solving for Uy, Initial residual = 0.0058849942, Final residual = 0.00024625582, No Iterations 1
DILUPBiCGStab:  Solving for Uz, Initial residual = 0.0074874848, Final residual = 0.00029911811, No Iterations 1
DICPCG:  Solving for p, Initial residual = 0.048255207, Final residual = 0.0004657735, No Iterations 26
time step continuity errors : sum local = 6.7942834e-007, global = -1.4680156e-007, cumulative = -9.6888243e-007
DILUPBiCGStab:  Solving for epsilon, Initial residual = 8.6717572e-006, Final residual = 8.6717572e-006, No Iterations 0
DILUPBiCGStab:  Solving for k, Initial residual = 0.00055447666, Final residual = 1.9581211e-006, No Iterations 1
ExecutionTime = 892.582 s  ClockTime = 893 s

Time = 77

DILUPBiCGStab:  Solving for Ux, Initial residual = 0.0062721449, Final residual = 0.00027464507, No Iterations 1
DILUPBiCGStab:  Solving for Uy, Initial residual = 0.005906268, Final residual = 0.00024764092, No Iterations 1
DILUPBiCGStab:  Solving for Uz, Initial residual = 0.0074337168, Final residual = 0.000290234, No Iterations 1
DICPCG:  Solving for p, Initial residual = 0.047994986, Final residual = 0.00047835933, No Iterations 36
time step continuity errors : sum local = 6.9604509e-007, global = -1.3354963e-007, cumulative = -1.1024321e-006
DILUPBiCGStab:  Solving for epsilon, Initial residual = 8.3123165e-006, Final residual = 8.3123165e-006, No Iterations 0
DILUPBiCGStab:  Solving for k, Initial residual = 0.00050539648, Final residual = 1.7879149e-006, No Iterations 1
ExecutionTime = 899.341 s  ClockTime = 899 s

Time = 78

DILUPBiCGStab:  Solving for Ux, Initial residual = 0.0062994737, Final residual = 0.00027594895, No Iterations 1
DILUPBiCGStab:  Solving for Uy, Initial residual = 0.0059261553, Final residual = 0.00024882797, No Iterations 1
DILUPBiCGStab:  Solving for Uz, Initial residual = 0.0073797206, Final residual = 0.00028071607, No Iterations 1
DICPCG:  Solving for p, Initial residual = 0.047693539, Final residual = 0.00047242037, No Iterations 49
time step continuity errors : sum local = 6.8555698e-007, global = -1.1865186e-007, cumulative = -1.2210839e-006
DILUPBiCGStab:  Solving for epsilon, Initial residual = 7.9595122e-006, Final residual = 7.9595122e-006, No Iterations 0
DILUPBiCGStab:  Solving for k, Initial residual = 0.00046030224, Final residual = 1.6293572e-006, No Iterations 1
ExecutionTime = 906.665 s  ClockTime = 907 s

Time = 79

DILUPBiCGStab:  Solving for Ux, Initial residual = 0.0063245664, Final residual = 0.00027699674, No Iterations 1
DILUPBiCGStab:  Solving for Uy, Initial residual = 0.0059448365, Final residual = 0.00024980483, No Iterations 1
DILUPBiCGStab:  Solving for Uz, Initial residual = 0.007330013, Final residual = 0.00027125228, No Iterations 1
DICPCG:  Solving for p, Initial residual = 0.047457289, Final residual = 0.00046181001, No Iterations 19
time step continuity errors : sum local = 6.6776014e-007, global = -1.9803235e-007, cumulative = -1.4191163e-006
DILUPBiCGStab:  Solving for epsilon, Initial residual = 7.6174488e-006, Final residual = 7.6174488e-006, No Iterations 0
DILUPBiCGStab:  Solving for k, Initial residual = 0.0004189894, Final residual = 1.4823605e-006, No Iterations 1
ExecutionTime = 912.617 s  ClockTime = 913 s

Time = 80

DILUPBiCGStab:  Solving for Ux, Initial residual = 0.0063425405, Final residual = 0.00027769549, No Iterations 1
DILUPBiCGStab:  Solving for Uy, Initial residual = 0.0059569286, Final residual = 0.00025069985, No Iterations 1
DILUPBiCGStab:  Solving for Uz, Initial residual = 0.0072791856, Final residual = 0.00026178806, No Iterations 1
DICPCG:  Solving for p, Initial residual = 0.047154795, Final residual = 0.00044555451, No Iterations 52
time step continuity errors : sum local = 6.4271222e-007, global = -8.4281108e-008, cumulative = -1.5033974e-006
DILUPBiCGStab:  Solving for epsilon, Initial residual = 7.2887485e-006, Final residual = 7.2887485e-006, No Iterations 0
DILUPBiCGStab:  Solving for k, Initial residual = 0.00038118846, Final residual = 1.3464696e-006, No Iterations 1
ExecutionTime = 920.241 s  ClockTime = 920 s

Time = 81

DILUPBiCGStab:  Solving for Ux, Initial residual = 0.0063654893, Final residual = 0.00027832362, No Iterations 1
DILUPBiCGStab:  Solving for Uy, Initial residual = 0.0059709061, Final residual = 0.00025148184, No Iterations 1
DILUPBiCGStab:  Solving for Uz, Initial residual = 0.0072351765, Final residual = 0.00025288612, No Iterations 1
DICPCG:  Solving for p, Initial residual = 0.047058649, Final residual = 0.00045418783, No Iterations 20
time step continuity errors : sum local = 6.5107058e-007, global = -2.2028394e-007, cumulative = -1.7236813e-006
DILUPBiCGStab:  Solving for epsilon, Initial residual = 6.975149e-006, Final residual = 6.975149e-006, No Iterations 0
DILUPBiCGStab:  Solving for k, Initial residual = 0.00034661494, Final residual = 1.2210586e-006, No Iterations 1
ExecutionTime = 926.457 s  ClockTime = 926 s

Time = 82

DILUPBiCGStab:  Solving for Ux, Initial residual = 0.0063765827, Final residual = 0.00027835723, No Iterations 1
DILUPBiCGStab:  Solving for Uy, Initial residual = 0.0059787089, Final residual = 0.00025201295, No Iterations 1
DILUPBiCGStab:  Solving for Uz, Initial residual = 0.0071892563, Final residual = 0.00024483075, No Iterations 1
DICPCG:  Solving for p, Initial residual = 0.046891877, Final residual = 0.00044274468, No Iterations 70
time step continuity errors : sum local = 6.3307503e-007, global = -8.1455107e-008, cumulative = -1.8051364e-006
DILUPBiCGStab:  Solving for epsilon, Initial residual = 6.6774922e-006, Final residual = 6.6774922e-006, No Iterations 0
[...]
DILUPBiCGStab:  Solving for Uy, Initial residual = 6.502555e-006, Final residual = 6.502555e-006, No Iterations 0
DILUPBiCGStab:  Solving for Uz, Initial residual = 6.2972734e-006, Final residual = 6.2972734e-006, No Iterations 0
DICPCG:  Solving for p, Initial residual = 1.043012e-005, Final residual = 1.0344417e-007, No Iterations 115
time step continuity errors : sum local = 2.1104809e-010, global = -1.4228461e-011, cumulative = -2.6245805e-006
DILUPBiCGStab:  Solving for epsilon, Initial residual = 5.0028492e-006, Final residual = 5.0028492e-006, No Iterations 0
DILUPBiCGStab:  Solving for k, Initial residual = 9.4996288e-006, Final residual = 9.4996288e-006, No Iterations 0
ExecutionTime = 59057.457 s  ClockTime = 59057 s

Time = 3822

DILUPBiCGStab:  Solving for Ux, Initial residual = 5.0975251e-006, Final residual = 5.0975251e-006, No Iterations 0
DILUPBiCGStab:  Solving for Uy, Initial residual = 6.4973736e-006, Final residual = 6.4973736e-006, No Iterations 0
DILUPBiCGStab:  Solving for Uz, Initial residual = 6.2904427e-006, Final residual = 6.2904427e-006, No Iterations 0
DICPCG:  Solving for p, Initial residual = 1.0733329e-005, Final residual = 1.0280993e-007, No Iterations 115
time step continuity errors : sum local = 2.0975589e-010, global = -1.4094884e-011, cumulative = -2.6245946e-006
DILUPBiCGStab:  Solving for epsilon, Initial residual = 5.0028493e-006, Final residual = 5.0028493e-006, No Iterations 0
DILUPBiCGStab:  Solving for k, Initial residual = 9.4996367e-006, Final residual = 9.4996367e-006, No Iterations 0
ExecutionTime = 59071.17 s  ClockTime = 59071 s

Time = 3823

DILUPBiCGStab:  Solving for Ux, Initial residual = 5.0930237e-006, Final residual = 5.0930237e-006, No Iterations 0
DILUPBiCGStab:  Solving for Uy, Initial residual = 6.4921881e-006, Final residual = 6.4921881e-006, No Iterations 0
DILUPBiCGStab:  Solving for Uz, Initial residual = 6.2832486e-006, Final residual = 6.2832486e-006, No Iterations 0
DICPCG:  Solving for p, Initial residual = 1.0565352e-005, Final residual = 1.0346463e-007, No Iterations 115
time step continuity errors : sum local = 2.110935e-010, global = -1.4079108e-011, cumulative = -2.6246087e-006
DILUPBiCGStab:  Solving for epsilon, Initial residual = 5.0028493e-006, Final residual = 5.0028493e-006, No Iterations 0
DILUPBiCGStab:  Solving for k, Initial residual = 9.4996446e-006, Final residual = 9.4996446e-006, No Iterations 0
ExecutionTime = 59083.362 s  ClockTime = 59083 s

Time = 3824

DILUPBiCGStab:  Solving for Ux, Initial residual = 5.0885355e-006, Final residual = 5.0885355e-006, No Iterations 0
DILUPBiCGStab:  Solving for Uy, Initial residual = 6.4870279e-006, Final residual = 6.4870279e-006, No Iterations 0
DILUPBiCGStab:  Solving for Uz, Initial residual = 6.2768435e-006, Final residual = 6.2768435e-006, No Iterations 0
DICPCG:  Solving for p, Initial residual = 1.0761784e-005, Final residual = 1.0687109e-007, No Iterations 114
time step continuity errors : sum local = 2.1804537e-010, global = -1.6267236e-011, cumulative = -2.6246249e-006
DILUPBiCGStab:  Solving for epsilon, Initial residual = 5.0028494e-006, Final residual = 5.0028494e-006, No Iterations 0
DILUPBiCGStab:  Solving for k, Initial residual = 9.4996524e-006, Final residual = 9.4996524e-006, No Iterations 0
ExecutionTime = 59096.032 s  ClockTime = 59096 s

Time = 3825

DILUPBiCGStab:  Solving for Ux, Initial residual = 5.084041e-006, Final residual = 5.084041e-006, No Iterations 0
DILUPBiCGStab:  Solving for Uy, Initial residual = 6.4818616e-006, Final residual = 6.4818616e-006, No Iterations 0
DILUPBiCGStab:  Solving for Uz, Initial residual = 6.2686985e-006, Final residual = 6.2686985e-006, No Iterations 0
DICPCG:  Solving for p, Initial residual = 1.0456777e-005, Final residual = 1.0381731e-007, No Iterations 115
time step continuity errors : sum local = 2.1181673e-010, global = -1.4051201e-011, cumulative = -2.624639e-006
DILUPBiCGStab:  Solving for epsilon, Initial residual = 5.0028494e-006, Final residual = 5.0028494e-006, No Iterations 0
DILUPBiCGStab:  Solving for k, Initial residual = 9.4996603e-006, Final residual = 9.4996603e-006, No Iterations 0
ExecutionTime = 59110.085 s  ClockTime = 59110 s

Time = 3826

DILUPBiCGStab:  Solving for Ux, Initial residual = 5.0795691e-006, Final residual = 5.0795691e-006, No Iterations 0
DILUPBiCGStab:  Solving for Uy, Initial residual = 6.4766955e-006, Final residual = 6.4766955e-006, No Iterations 0
DILUPBiCGStab:  Solving for Uz, Initial residual = 6.2621881e-006, Final residual = 6.2621881e-006, No Iterations 0
DICPCG:  Solving for p, Initial residual = 1.077652e-005, Final residual = 1.067166e-007, No Iterations 114
time step continuity errors : sum local = 2.1773393e-010, global = -1.6204507e-011, cumulative = -2.6246552e-006
DILUPBiCGStab:  Solving for epsilon, Initial residual = 5.0028495e-006, Final residual = 5.0028495e-006, No Iterations 0
DILUPBiCGStab:  Solving for k, Initial residual = 9.4996681e-006, Final residual = 9.4996681e-006, No Iterations 0
ExecutionTime = 59123.153 s  ClockTime = 59123 s

Time = 3827

DILUPBiCGStab:  Solving for Ux, Initial residual = 5.0750884e-006, Final residual = 5.0750884e-006, No Iterations 0
DILUPBiCGStab:  Solving for Uy, Initial residual = 6.4715401e-006, Final residual = 6.4715401e-006, No Iterations 0
DILUPBiCGStab:  Solving for Uz, Initial residual = 6.2546033e-006, Final residual = 6.2546033e-006, No Iterations 0
DICPCG:  Solving for p, Initial residual = 1.0323652e-005, Final residual = 1.0296674e-007, No Iterations 115
time step continuity errors : sum local = 2.1008493e-010, global = -1.3969344e-011, cumulative = -2.6246692e-006
DILUPBiCGStab:  Solving for epsilon, Initial residual = 5.0028496e-006, Final residual = 5.0028496e-006, No Iterations 0
DILUPBiCGStab:  Solving for k, Initial residual = 9.499676e-006, Final residual = 9.499676e-006, No Iterations 0
ExecutionTime = 59136.48 s  ClockTime = 59137 s

Time = 3828

DILUPBiCGStab:  Solving for Ux, Initial residual = 5.0706075e-006, Final residual = 5.0706075e-006, No Iterations 0
DILUPBiCGStab:  Solving for Uy, Initial residual = 6.4663585e-006, Final residual = 6.4663585e-006, No Iterations 0
DILUPBiCGStab:  Solving for Uz, Initial residual = 6.248498e-006, Final residual = 6.248498e-006, No Iterations 0
DICPCG:  Solving for p, Initial residual = 1.0627198e-005, Final residual = 1.04822e-007, No Iterations 115
time step continuity errors : sum local = 2.1387207e-010, global = -1.4057219e-011, cumulative = -2.6246832e-006
DILUPBiCGStab:  Solving for epsilon, Initial residual = 5.0028496e-006, Final residual = 5.0028496e-006, No Iterations 0
DILUPBiCGStab:  Solving for k, Initial residual = 9.4996838e-006, Final residual = 9.4996838e-006, No Iterations 0
ExecutionTime = 59150.379 s  ClockTime = 59150 s

Time = 3829

DILUPBiCGStab:  Solving for Ux, Initial residual = 5.0661328e-006, Final residual = 5.0661328e-006, No Iterations 0
DILUPBiCGStab:  Solving for Uy, Initial residual = 6.4611855e-006, Final residual = 6.4611855e-006, No Iterations 0
DILUPBiCGStab:  Solving for Uz, Initial residual = 6.2420045e-006, Final residual = 6.2420045e-006, No Iterations 0
DICPCG:  Solving for p, Initial residual = 1.045959e-005, Final residual = 1.0260415e-007, No Iterations 115
time step continuity errors : sum local = 2.0934879e-010, global = -1.3894909e-011, cumulative = -2.6246971e-006
DILUPBiCGStab:  Solving for epsilon, Initial residual = 5.0028497e-006, Final residual = 5.0028497e-006, No Iterations 0
DILUPBiCGStab:  Solving for k, Initial residual = 9.4996916e-006, Final residual = 9.4996916e-006, No Iterations 0
ExecutionTime = 59164.273 s  ClockTime = 59164 s

Time = 3830

DILUPBiCGStab:  Solving for Ux, Initial residual = 5.0616686e-006, Final residual = 5.0616686e-006, No Iterations 0
DILUPBiCGStab:  Solving for Uy, Initial residual = 6.4560384e-006, Final residual = 6.4560384e-006, No Iterations 0
DILUPBiCGStab:  Solving for Uz, Initial residual = 6.235985e-006, Final residual = 6.235985e-006, No Iterations 0
DICPCG:  Solving for p, Initial residual = 1.0679544e-005, Final residual = 1.015351e-007, No Iterations 115
time step continuity errors : sum local = 2.0716928e-010, global = -1.362565e-011, cumulative = -2.6247107e-006
DILUPBiCGStab:  Solving for epsilon, Initial residual = 5.0028497e-006, Final residual = 5.0028497e-006, No Iterations 0
DILUPBiCGStab:  Solving for k, Initial residual = 9.4996995e-006, Final residual = 9.4996995e-006, No Iterations 0
ExecutionTime = 59178.889 s  ClockTime = 59179 s

Time = 3831

DILUPBiCGStab:  Solving for Ux, Initial residual = 5.0572005e-006, Final residual = 5.0572005e-006, No Iterations 0
DILUPBiCGStab:  Solving for Uy, Initial residual = 6.4508942e-006, Final residual = 6.4508942e-006, No Iterations 0
DILUPBiCGStab:  Solving for Uz, Initial residual = 6.2287119e-006, Final residual = 6.2287119e-006, No Iterations 0
DICPCG:  Solving for p, Initial residual = 1.0445684e-005, Final residual = 9.9543366e-008, No Iterations 115
time step continuity errors : sum local = 2.0310723e-010, global = -1.3895778e-011, cumulative = -2.6247246e-006
DILUPBiCGStab:  Solving for epsilon, Initial residual = 5.0028498e-006, Final residual = 5.0028498e-006, No Iterations 0
DILUPBiCGStab:  Solving for k, Initial residual = 9.4997073e-006, Final residual = 9.4997073e-006, No Iterations 0
ExecutionTime = 59192.336 s  ClockTime = 59192 s

Time = 3832

DILUPBiCGStab:  Solving for Ux, Initial residual = 5.0527624e-006, Final residual = 5.0527624e-006, No Iterations 0
DILUPBiCGStab:  Solving for Uy, Initial residual = 6.4457784e-006, Final residual = 6.4457784e-006, No Iterations 0
DILUPBiCGStab:  Solving for Uz, Initial residual = 6.2225855e-006, Final residual = 6.2225855e-006, No Iterations 0
DICPCG:  Solving for p, Initial residual = 1.0806352e-005, Final residual = 1.061526e-007, No Iterations 114
time step continuity errors : sum local = 2.1659451e-010, global = -1.6198769e-011, cumulative = -2.6247408e-006
DILUPBiCGStab:  Solving for epsilon, Initial residual = 5.0028499e-006, Final residual = 5.0028499e-006, No Iterations 0
DILUPBiCGStab:  Solving for k, Initial residual = 9.4997151e-006, Final residual = 9.4997151e-006, No Iterations 0
ExecutionTime = 59205.911 s  ClockTime = 59206 s

Time = 3833

DILUPBiCGStab:  Solving for Ux, Initial residual = 5.0482986e-006, Final residual = 5.0482986e-006, No Iterations 0
DILUPBiCGStab:  Solving for Uy, Initial residual = 6.4406699e-006, Final residual = 6.4406699e-006, No Iterations 0
DILUPBiCGStab:  Solving for Uz, Initial residual = 6.2147502e-006, Final residual = 6.2147502e-006, No Iterations 0
DICPCG:  Solving for p, Initial residual = 1.0566439e-005, Final residual = 1.0223956e-007, No Iterations 115
time step continuity errors : sum local = 2.086122e-010, global = -1.3912406e-011, cumulative = -2.6247547e-006
DILUPBiCGStab:  Solving for epsilon, Initial residual = 5.0028499e-006, Final residual = 5.0028499e-006, No Iterations 0
DILUPBiCGStab:  Solving for k, Initial residual = 9.4997229e-006, Final residual = 9.4997229e-006, No Iterations 0
ExecutionTime = 59219.464 s  ClockTime = 59219 s

Time = 3834

DILUPBiCGStab:  Solving for Ux, Initial residual = 5.043851e-006, Final residual = 5.043851e-006, No Iterations 0
DILUPBiCGStab:  Solving for Uy, Initial residual = 6.4355461e-006, Final residual = 6.4355461e-006, No Iterations 0
DILUPBiCGStab:  Solving for Uz, Initial residual = 6.2086023e-006, Final residual = 6.2086023e-006, No Iterations 0
DICPCG:  Solving for p, Initial residual = 1.0874941e-005, Final residual = 1.0409527e-007, No Iterations 114
time step continuity errors : sum local = 2.1240048e-010, global = -1.6468088e-011, cumulative = -2.6247712e-006
DILUPBiCGStab:  Solving for epsilon, Initial residual = 5.00285e-006, Final residual = 5.00285e-006, No Iterations 0
DILUPBiCGStab:  Solving for k, Initial residual = 9.4997306e-006, Final residual = 9.4997306e-006, No Iterations 0
ExecutionTime = 59232.967 s  ClockTime = 59233 s

Time = 3835

DILUPBiCGStab:  Solving for Ux, Initial residual = 5.0394017e-006, Final residual = 5.0394017e-006, No Iterations 0
DILUPBiCGStab:  Solving for Uy, Initial residual = 6.4304398e-006, Final residual = 6.4304398e-006, No Iterations 0
DILUPBiCGStab:  Solving for Uz, Initial residual = 6.2012092e-006, Final residual = 6.2012092e-006, No Iterations 0
DICPCG:  Solving for p, Initial residual = 1.0440124e-005, Final residual = 1.0093799e-007, No Iterations 114
time step continuity errors : sum local = 2.0596003e-010, global = -1.6027491e-011, cumulative = -2.6247872e-006
DILUPBiCGStab:  Solving for epsilon, Initial residual = 5.00285e-006, Final residual = 5.00285e-006, No Iterations 0
DILUPBiCGStab:  Solving for k, Initial residual = 9.4997384e-006, Final residual = 9.4997384e-006, No Iterations 0
ExecutionTime = 59247.522 s  ClockTime = 59248 s

Time = 3836

DILUPBiCGStab:  Solving for Ux, Initial residual = 5.0349591e-006, Final residual = 5.0349591e-006, No Iterations 0
DILUPBiCGStab:  Solving for Uy, Initial residual = 6.4253262e-006, Final residual = 6.4253262e-006, No Iterations 0
DILUPBiCGStab:  Solving for Uz, Initial residual = 6.1944348e-006, Final residual = 6.1944348e-006, No Iterations 0
DICPCG:  Solving for p, Initial residual = 1.0463681e-005, Final residual = 1.0323293e-007, No Iterations 115
time step continuity errors : sum local = 2.1064455e-010, global = -1.4102198e-011, cumulative = -2.6248013e-006
DILUPBiCGStab:  Solving for epsilon, Initial residual = 5.0028501e-006, Final residual = 5.0028501e-006, No Iterations 0
DILUPBiCGStab:  Solving for k, Initial residual = 9.4997462e-006, Final residual = 9.4997462e-006, No Iterations 0
ExecutionTime = 59261.198 s  ClockTime = 59261 s

Time = 3837

DILUPBiCGStab:  Solving for Ux, Initial residual = 5.0305196e-006, Final residual = 5.0305196e-006, No Iterations 0
DILUPBiCGStab:  Solving for Uy, Initial residual = 6.4201988e-006, Final residual = 6.4201988e-006, No Iterations 0
DILUPBiCGStab:  Solving for Uz, Initial residual = 6.1876707e-006, Final residual = 6.1876707e-006, No Iterations 0
DICPCG:  Solving for p, Initial residual = 1.0286046e-005, Final residual = 9.9664123e-008, No Iterations 115
time step continuity errors : sum local = 2.0336428e-010, global = -1.4304065e-011, cumulative = -2.6248156e-006
DILUPBiCGStab:  Solving for epsilon, Initial residual = 5.0028501e-006, Final residual = 5.0028501e-006, No Iterations 0
DILUPBiCGStab:  Solving for k, Initial residual = 9.4997539e-006, Final residual = 9.4997539e-006, No Iterations 0
ExecutionTime = 59274.298 s  ClockTime = 59274 s

Time = 3838

DILUPBiCGStab:  Solving for Ux, Initial residual = 5.0260949e-006, Final residual = 5.0260949e-006, No Iterations 0
DILUPBiCGStab:  Solving for Uy, Initial residual = 6.4150809e-006, Final residual = 6.4150809e-006, No Iterations 0
DILUPBiCGStab:  Solving for Uz, Initial residual = 6.1820725e-006, Final residual = 6.1820725e-006, No Iterations 0
DICPCG:  Solving for p, Initial residual = 1.0450922e-005, Final residual = 9.9466067e-008, No Iterations 116
time step continuity errors : sum local = 2.0296179e-010, global = -1.1580504e-011, cumulative = -2.6248272e-006
DILUPBiCGStab:  Solving for epsilon, Initial residual = 5.0028502e-006, Final residual = 5.0028502e-006, No Iterations 0
DILUPBiCGStab:  Solving for k, Initial residual = 9.4997617e-006, Final residual = 9.4997617e-006, No Iterations 0
ExecutionTime = 59288.839 s  ClockTime = 59289 s

Time = 3839

DILUPBiCGStab:  Solving for Ux, Initial residual = 5.021636e-006, Final residual = 5.021636e-006, No Iterations 0
DILUPBiCGStab:  Solving for Uy, Initial residual = 6.4099156e-006, Final residual = 6.4099156e-006, No Iterations 0
DILUPBiCGStab:  Solving for Uz, Initial residual = 6.1754444e-006, Final residual = 6.1754444e-006, No Iterations 0
DICPCG:  Solving for p, Initial residual = 1.0231515e-005, Final residual = 1.0143009e-007, No Iterations 114
time step continuity errors : sum local = 2.0697119e-010, global = -1.5717817e-011, cumulative = -2.6248429e-006
DILUPBiCGStab:  Solving for epsilon, Initial residual = 5.0028503e-006, Final residual = 5.0028503e-006, No Iterations 0
DILUPBiCGStab:  Solving for k, Initial residual = 9.4997694e-006, Final residual = 9.4997694e-006, No Iterations 0
ExecutionTime = 59303.182 s  ClockTime = 59303 s

Time = 3840

DILUPBiCGStab:  Solving for Ux, Initial residual = 5.017222e-006, Final residual = 5.017222e-006, No Iterations 0
DILUPBiCGStab:  Solving for Uy, Initial residual = 6.4048297e-006, Final residual = 6.4048297e-006, No Iterations 0
DILUPBiCGStab:  Solving for Uz, Initial residual = 6.1683113e-006, Final residual = 6.1683113e-006, No Iterations 0
DICPCG:  Solving for p, Initial residual = 1.0343397e-005, Final residual = 9.9977931e-008, No Iterations 115
time step continuity errors : sum local = 2.0400971e-010, global = -1.376894e-011, cumulative = -2.6248567e-006
DILUPBiCGStab:  Solving for epsilon, Initial residual = 5.0028503e-006, Final residual = 5.0028503e-006, No Iterations 0
DILUPBiCGStab:  Solving for k, Initial residual = 9.4997771e-006, Final residual = 9.4997771e-006, No Iterations 0
ExecutionTime = 59316.938 s  ClockTime = 59317 s

Time = 3841

DILUPBiCGStab:  Solving for Ux, Initial residual = 5.0127982e-006, Final residual = 5.0127982e-006, No Iterations 0
DILUPBiCGStab:  Solving for Uy, Initial residual = 6.3997397e-006, Final residual = 6.3997397e-006, No Iterations 0
DILUPBiCGStab:  Solving for Uz, Initial residual = 6.1610352e-006, Final residual = 6.1610352e-006, No Iterations 0
DICPCG:  Solving for p, Initial residual = 9.8568489e-006, Final residual = 9.5420745e-008, No Iterations 118
time step continuity errors : sum local = 1.9471224e-010, global = -8.1327157e-012, cumulative = -2.6248648e-006
DILUPBiCGStab:  Solving for epsilon, Initial residual = 5.0028504e-006, Final residual = 5.0028504e-006, No Iterations 0
DILUPBiCGStab:  Solving for k, Initial residual = 9.4997848e-006, Final residual = 9.4997848e-006, No Iterations 0
ExecutionTime = 59331.176 s  ClockTime = 59331 s


SIMPLE solution converged in 3841 iterations

End

Finalising parallel run
/*---------------------------------------------------------------------------*\
| =========                 |                                                 |
| \\      /  F ield         | OpenFOAM: The Open Source CFD Toolbox           |
|  \\    /   O peration     | Version:  5.x                                   |
|   \\  /    A nd           | Web:      www.OpenFOAM.org                      |
|    \\/     M anipulation  |                                                 |
\*---------------------------------------------------------------------------*/
/*   Windows 32 and 64 bit porting by blueCAPE: http://www.bluecape.com.pt   *\
|  Based on Windows porting (2.0.x v4) by Symscape: http://www.symscape.com   |
\*---------------------------------------------------------------------------*/
Build  : 5.x-963176928289
Exec   : reconstructPar -latestTime
Date   : Mar 09 2022
Time   : 12:32:30
Host   : "AR-128-THREAD"
PID    : 37632
I/O    : uncollated
Case   : E:/CFDGAN/Gen_Box/41_Case_Type_Scatter_Height_40_Dist_30_dir_60/60
nProcs : 1
SigFpe : Enabling floating point exception trapping (FOAM_SIGFPE).
fileModificationChecking : Monitoring run-time modified files using timeStampMaster (fileModificationSkew 10)
allowSystemOperations : Allowing user-supplied system call operations

// * * * * * * * * * * * * * * * * * * * * * * * * * * * * * * * * * * * * * //
Create time



Reconstructing fields for mesh region0

Time = 3841

Reconstructing FV fields

    Reconstructing volScalarFields

        p
        nut
        k
        epsilon

    Reconstructing volVectorFields

        U

    Reconstructing surfaceScalarFields

        phi

Reconstructing point fields

No point fields

No lagrangian fields


End

