/*---------------------------------------------------------------------------*\
  =========                 |
  \\      /  F ield         | OpenFOAM: The Open Source CFD Toolbox
   \\    /   O peration     | Website:  https://openfoam.org
    \\  /    A nd           | Version:  8
     \\/     M anipulation  |
\*---------------------------------------------------------------------------*/
/*   Windows 32 and 64 bit porting by blueCAPE: http://www.bluecape.com.pt   *\
|  Based on Windows porting (2.0.x v4) by Symscape: http://www.symscape.com   |
\*---------------------------------------------------------------------------*/
Build  : 8-53cd1468e263
Exec   : decomposePar -force
Date   : May 24 2022
Time   : 11:07:09
Host   : "DESKTOP-6ISUCKQ"
PID    : 19072
I/O    : uncollated
Case   : D:/CFDGAN/NeighborhoodGAN/Case_17/0
nProcs : 1
SigFpe : Enabling floating point exception trapping (FOAM_SIGFPE).
fileModificationChecking : Monitoring run-time modified files using timeStampMaster (fileModificationSkew 10)
allowSystemOperations : Allowing user-supplied system call operations

// * * * * * * * * * * * * * * * * * * * * * * * * * * * * * * * * * * * * * //
Create time

Removing 0 existing processor directories


Decomposing mesh region0

Create mesh

Calculating distribution of cells
Selecting decompositionMethod scotch

Finished decomposition in 0.209 s

Calculating original mesh data

Distributing cells to processors

Distributing faces to processors

Distributing points to processors

Constructing processor meshes

Processor 0
    Number of cells = 4830
    Number of faces shared with processor 1 = 336
    Number of faces shared with processor 2 = 140
    Number of faces shared with processor 3 = 154
    Number of faces shared with processor 8 = 196
    Number of faces shared with processor 9 = 84
    Number of processor patches = 5
    Number of processor faces = 910
    Number of boundary faces = 900

Processor 1
    Number of cells = 4872
    Number of faces shared with processor 0 = 336
    Number of faces shared with processor 3 = 210
    Number of processor patches = 2
    Number of processor faces = 546
    Number of boundary faces = 1242

Processor 2
    Number of cells = 4924
    Number of faces shared with processor 0 = 140
    Number of faces shared with processor 3 = 196
    Number of faces shared with processor 4 = 232
    Number of faces shared with processor 6 = 280
    Number of faces shared with processor 9 = 252
    Number of processor patches = 5
    Number of processor faces = 1100
    Number of boundary faces = 856

Processor 3
    Number of cells = 4844
    Number of faces shared with processor 0 = 154
    Number of faces shared with processor 1 = 210
    Number of faces shared with processor 2 = 196
    Number of faces shared with processor 4 = 336
    Number of processor patches = 4
    Number of processor faces = 896
    Number of boundary faces = 888

Processor 4
    Number of cells = 4848
    Number of faces shared with processor 2 = 232
    Number of faces shared with processor 3 = 336
    Number of processor patches = 2
    Number of processor faces = 568
    Number of boundary faces = 1240

Processor 5
    Number of cells = 4914
    Number of faces shared with processor 6 = 364
    Number of faces shared with processor 7 = 182
    Number of faces shared with processor 9 = 140
    Number of processor patches = 3
    Number of processor faces = 686
    Number of boundary faces = 1220

Processor 6
    Number of cells = 4830
    Number of faces shared with processor 2 = 280
    Number of faces shared with processor 5 = 364
    Number of faces shared with processor 9 = 168
    Number of processor patches = 3
    Number of processor faces = 812
    Number of boundary faces = 942

Processor 7
    Number of cells = 4900
    Number of faces shared with processor 5 = 182
    Number of faces shared with processor 8 = 210
    Number of faces shared with processor 9 = 196
    Number of processor patches = 3
    Number of processor faces = 588
    Number of boundary faces = 1260

Processor 8
    Number of cells = 4900
    Number of faces shared with processor 0 = 196
    Number of faces shared with processor 7 = 210
    Number of faces shared with processor 9 = 336
    Number of processor patches = 3
    Number of processor faces = 742
    Number of boundary faces = 1050

Processor 9
    Number of cells = 4914
    Number of faces shared with processor 0 = 84
    Number of faces shared with processor 2 = 252
    Number of faces shared with processor 5 = 140
    Number of faces shared with processor 6 = 168
    Number of faces shared with processor 7 = 196
    Number of faces shared with processor 8 = 336
    Number of processor patches = 6
    Number of processor faces = 1176
    Number of boundary faces = 702

Number of processor faces = 4012
Max number of cells = 4924 (0.95128752% above average 4877.6)
Max number of processor patches = 6 (66.666667% above average 3.6)
Max number of faces between processors = 1176 (46.560319% above average 802.4)

Time = 0

Processor 0: field transfer
Processor 1: field transfer
Processor 2: field transfer
Processor 3: field transfer
Processor 4: field transfer
Processor 5: field transfer
Processor 6: field transfer
Processor 7: field transfer
Processor 8: field transfer
Processor 9: field transfer

End

/*---------------------------------------------------------------------------*\
  =========                 |
  \\      /  F ield         | OpenFOAM: The Open Source CFD Toolbox
   \\    /   O peration     | Website:  https://openfoam.org
    \\  /    A nd           | Version:  8
     \\/     M anipulation  |
\*---------------------------------------------------------------------------*/
/*   Windows 32 and 64 bit porting by blueCAPE: http://www.bluecape.com.pt   *\
|  Based on Windows porting (2.0.x v4) by Symscape: http://www.symscape.com   |
\*---------------------------------------------------------------------------*/
Build  : 8-53cd1468e263
Exec   : simpleFoam -parallel
Date   : May 24 2022
Time   : 11:07:10
Host   : "DESKTOP-6ISUCKQ"
PID    : 26876
I/O    : uncollated
Case   : D:/CFDGAN/NeighborhoodGAN/Case_17/0
nProcs : 10
Slaves : 
9
(
"DESKTOP-6ISUCKQ.25076"
"DESKTOP-6ISUCKQ.8336"
"DESKTOP-6ISUCKQ.3056"
"DESKTOP-6ISUCKQ.8916"
"DESKTOP-6ISUCKQ.24996"
"DESKTOP-6ISUCKQ.13108"
"DESKTOP-6ISUCKQ.2440"
"DESKTOP-6ISUCKQ.18848"
"DESKTOP-6ISUCKQ.21700"
)

Pstream initialized with:
    floatTransfer      : 0
    nProcsSimpleSum    : 0
    commsType          : nonBlocking
    polling iterations : 0
SigFpe : Enabling floating point exception trapping (FOAM_SIGFPE).
fileModificationChecking : Monitoring run-time modified files using timeStampMaster (fileModificationSkew 10)
allowSystemOperations : Allowing user-supplied system call operations

// * * * * * * * * * * * * * * * * * * * * * * * * * * * * * * * * * * * * * //
Create time

Create mesh for time = 0


SIMPLE: Convergence criteria found
        p: tolerance 1e-05
        U: tolerance 0.0001

Reading field p

Reading field U

Reading/calculating face flux field phi

Selecting incompressible transport model Newtonian
Selecting turbulence model type RAS
Selecting RAS turbulence model realizableKE
RAS
{
    RASModel        realizableKE;
    turbulence      on;
    printCoeffs     on;
    A0              4;
    C2              1.9;
    sigmak          1;
    sigmaEps        1.2;
}

No MRF models present

No finite volume options present

Starting time loop



fieldMinMax fieldMinMax write:
    min(mag(U)) = 0 in cell 0 at location (515.91796 212.55188 10.232786) on processor 0
    max(mag(U)) = 11.729133 in cell 664 at location (495.68588 524.739 276.28521) on processor 1
    min(p) = 0 in cell 0 at location (515.91796 212.55188 10.232786) on processor 0
    max(p) = 0 in cell 0 at location (515.91796 212.55188 10.232786) on processor 0
    min(k) = 0.015 in cell 0 at location (515.91796 212.55188 10.232786) on processor 0
    max(k) = 2.4362735 in cell 0 at location (515.91796 524.739 10.232786) on processor 1
    min(epsilon) = 0.0054961728 in cell 546 at location (-252.90096 524.739 276.28521) on processor 4
    max(epsilon) = 0.13567493 in cell 1 at location (495.68588 524.739 10.232786) on processor 1
    min(nut) = 0.00041003382 in cell 1379 at location (394.5255 514.66845 276.28521) on processor 1
    max(nut) = 3.3669193 in cell 220 at location (313.59719 524.739 10.232786) on processor 1

volFieldValue average write:
    weightedVolAverage() of U = (0 0 0)
    weightedVolAverage() of p = 0

Time = 1

DILUPBiCGStab:  Solving for Ux, Initial residual = 1, Final residual = 1.9672841e-06, No Iterations 1
DILUPBiCGStab:  Solving for Uy, Initial residual = 1, Final residual = 2.9457625e-07, No Iterations 1
DILUPBiCGStab:  Solving for Uz, Initial residual = 1, Final residual = 3.3379257e-07, No Iterations 1
DICPCG:  Solving for p, Initial residual = 1, Final residual = 0.0092941834, No Iterations 70
DICPCG:  Solving for p, Initial residual = 5.7364717e-05, Final residual = 4.6941544e-07, No Iterations 43
DICPCG:  Solving for p, Initial residual = 4.6943874e-07, Final residual = 4.5436367e-09, No Iterations 68
time step continuity errors : sum local = 3.2318643e-09, global = -9.1493125e-11, cumulative = -9.1493125e-11
DILUPBiCGStab:  Solving for epsilon, Initial residual = 0.99976645, Final residual = 0.00081215229, No Iterations 1
DILUPBiCGStab:  Solving for k, Initial residual = 1, Final residual = 0.002323816, No Iterations 1
ExecutionTime = 0.373 s  ClockTime = 1 s

fieldMinMax fieldMinMax write:
    min(mag(U)) = 0 in cell 0 at location (515.91796 212.55188 0) on processor 0
    max(mag(U)) = 11.729133 in cell 664 at location (495.68588 524.739 276.28521) on processor 1
    min(p) = 0 in cell 1784 at location (-171.97265 -824.715 10.232786) on processor 5
    max(p) = 0.059709583 in cell 559 at location (-515.91796 514.66845 10.232786) on processor 4
    min(k) = 0.004865591 in cell 3255 at location (-515.91796 11.140836 10.232786) on processor 2
    max(k) = 2.4362735 in cell 0 at location (515.91796 524.739 10.232786) on processor 1
    min(epsilon) = 7.1951696e-05 in cell 1479 at location (-151.74058 -794.50334 10.232786) on processor 5
    max(epsilon) = 0.13567493 in cell 1 at location (495.68588 524.739 10.232786) on processor 1
    min(nut) = 0.00015148904 in cell 2521 at location (212.43681 -552.81009 255.81964) on processor 7
    max(nut) = 6.616819 in cell 8 at location (10.116038 524.739 30.698357) on processor 3

volFieldValue average write:
    weightedVolAverage() of U = (5.2538304e-08 -2.4350742 -0.010039304)
    weightedVolAverage() of p = 0.018382745

Time = 2

DILUPBiCGStab:  Solving for Ux, Initial residual = 0.25883601, Final residual = 0.0093580439, No Iterations 1
DILUPBiCGStab:  Solving for Uy, Initial residual = 0.21455811, Final residual = 0.0061550029, No Iterations 1
DILUPBiCGStab:  Solving for Uz, Initial residual = 0.32347413, Final residual = 0.0061061162, No Iterations 1
DICPCG:  Solving for p, Initial residual = 0.99393154, Final residual = 0.0091914094, No Iterations 74
DICPCG:  Solving for p, Initial residual = 5.7356244e-05, Final residual = 5.4269871e-07, No Iterations 41
DICPCG:  Solving for p, Initial residual = 5.4270891e-07, Final residual = 4.5420266e-09, No Iterations 69
time step continuity errors : sum local = 4.0435505e-09, global = -1.754516e-10, cumulative = -2.6694472e-10
DILUPBiCGStab:  Solving for epsilon, Initial residual = 0.94095221, Final residual = 0.00062961499, No Iterations 1
DILUPBiCGStab:  Solving for k, Initial residual = 0.39711362, Final residual = 0.0071664304, No Iterations 1
ExecutionTime = 0.487 s  ClockTime = 1 s

fieldMinMax fieldMinMax write:
    min(mag(U)) = 0 in cell 0 at location (515.91796 212.55188 0) on processor 0
    max(mag(U)) = 36.213739 in cell 286 at location (293.36512 -572.95119 10.232786) on processor 7
    min(p) = 0 in cell 1784 at location (-171.97265 -824.715 10.232786) on processor 5
    max(p) = 580.8413 in cell 1778 at location (-414.75758 514.66845 276.28521) on processor 4
    min(k) = 0.0023284416 in cell 797 at location (-232.66888 -552.81009 51.163929) on processor 5
    max(k) = 2.4362735 in cell 0 at location (515.91796 524.739 10.232786) on processor 1
    min(epsilon) = 1.3292527e-05 in cell 3255 at location (-515.91796 11.140836 10.232786) on processor 2
    max(epsilon) = 0.13567493 in cell 1 at location (495.68588 524.739 10.232786) on processor 1
    min(nut) = 5.8391624e-05 in cell 2158 at location (354.06135 -69.423582 30.698357) on processor 0
    max(nut) = 32.108243 in cell 3994 at location (111.27642 524.739 276.28521) on processor 1

volFieldValue average write:
    weightedVolAverage() of U = (0.00011744646 -5.4399728 -0.28415564)
    weightedVolAverage() of p = 195.09966

Time = 3

DILUPBiCGStab:  Solving for Ux, Initial residual = 0.39736391, Final residual = 0.020046972, No Iterations 1
DILUPBiCGStab:  Solving for Uy, Initial residual = 0.052900217, Final residual = 0.0049216915, No Iterations 1
DILUPBiCGStab:  Solving for Uz, Initial residual = 0.347565, Final residual = 0.0040294138, No Iterations 1
DICPCG:  Solving for p, Initial residual = 0.081797888, Final residual = 0.00066394277, No Iterations 63
DICPCG:  Solving for p, Initial residual = 0.0001422282, Final residual = 1.279451e-06, No Iterations 43
DICPCG:  Solving for p, Initial residual = 1.2794597e-06, Final residual = 1.1711251e-08, No Iterations 69
time step continuity errors : sum local = 5.2344403e-09, global = 2.2179144e-10, cumulative = -4.5153279e-11
DILUPBiCGStab:  Solving for epsilon, Initial residual = 0.97291225, Final residual = 0.0015118993, No Iterations 1
DILUPBiCGStab:  Solving for k, Initial residual = 0.076618191, Final residual = 0.0012666571, No Iterations 1
ExecutionTime = 0.672 s  ClockTime = 1 s

fieldMinMax fieldMinMax write:
    min(mag(U)) = 0 in cell 0 at location (515.91796 212.55188 0) on processor 0
    max(mag(U)) = 35.885463 in cell 286 at location (293.36512 -572.95119 10.232786) on processor 7
    min(p) = 0 in cell 1784 at location (-171.97265 -824.715 10.232786) on processor 5
    max(p) = 1206.9662 in cell 454 at location (515.91796 514.66845 255.81964) on processor 1
    min(k) = 0.00094160702 in cell 4458 at location (333.82927 -69.423582 276.28521) on processor 0
    max(k) = 2.8438151 in cell 313 at location (414.75758 514.66845 133.02621) on processor 1
    min(epsilon) = 2.1518159e-05 in cell 3479 at location (70.812269 31.28194 10.232786) on processor 0
    max(epsilon) = 0.13567493 in cell 1 at location (495.68588 524.739 10.232786) on processor 1
    min(nut) = 2.4137316e-05 in cell 1926 at location (-293.36512 -693.79782 30.698357) on processor 5
    max(nut) = 45.447409 in cell 3830 at location (131.5085 514.66845 286.518) on processor 1

volFieldValue average write:
    weightedVolAverage() of U = (0.00045182917 -8.5386997 -0.57523631)
    weightedVolAverage() of p = 511.74991

Time = 4

DILUPBiCGStab:  Solving for Ux, Initial residual = 0.35456031, Final residual = 0.022715567, No Iterations 1
DILUPBiCGStab:  Solving for Uy, Initial residual = 0.19785535, Final residual = 0.0010923137, No Iterations 1
DILUPBiCGStab:  Solving for Uz, Initial residual = 0.085596809, Final residual = 0.0065933919, No Iterations 1
DICPCG:  Solving for p, Initial residual = 0.057403241, Final residual = 0.0005551314, No Iterations 64
DICPCG:  Solving for p, Initial residual = 0.002926758, Final residual = 2.8422788e-05, No Iterations 44
DICPCG:  Solving for p, Initial residual = 2.8424523e-05, Final residual = 2.413906e-07, No Iterations 72
time step continuity errors : sum local = 5.0025421e-09, global = -1.0354777e-10, cumulative = -1.4870105e-10
DILUPBiCGStab:  Solving for epsilon, Initial residual = 0.95590235, Final residual = 0.0017363536, No Iterations 1
DILUPBiCGStab:  Solving for k, Initial residual = 0.038733308, Final residual = 0.00032194958, No Iterations 1
ExecutionTime = 0.79 s  ClockTime = 1 s

fieldMinMax fieldMinMax write:
    min(mag(U)) = 0 in cell 0 at location (515.91796 212.55188 0) on processor 0
    max(mag(U)) = 35.945388 in cell 286 at location (293.36512 -593.0923 10.232786) on processor 7
    min(p) = 0 in cell 1784 at location (-171.97265 -824.715 10.232786) on processor 5
    max(p) = 713.60507 in cell 0 at location (515.91796 514.66845 10.232786) on processor 1
    min(k) = 0.0003856277 in cell 65 at location (-70.812269 -512.52788 51.163929) on processor 5
    max(k) = 2.6191329 in cell 2159 at location (-515.91796 514.66845 214.8885) on processor 4
    min(epsilon) = 2.6294651e-05 in cell 4 at location (475.45381 -593.0923 10.232786) on processor 7
    max(epsilon) = 0.16867451 in cell 285 at location (-455.22173 514.66845 10.232786) on processor 4
    min(nut) = 9.6297493e-06 in cell 3699 at location (171.97265 -49.282478 30.698357) on processor 0
    max(nut) = 29.73015 in cell 3830 at location (131.5085 514.66845 286.518) on processor 1

volFieldValue average write:
    weightedVolAverage() of U = (0.00049843935 -10.787028 -0.48155063)
    weightedVolAverage() of p = 328.96288

Time = 5

DILUPBiCGStab:  Solving for Ux, Initial residual = 0.30548401, Final residual = 0.016157234, No Iterations 1
DILUPBiCGStab:  Solving for Uy, Initial residual = 0.12964006, Final residual = 0.00062659418, No Iterations 1
DILUPBiCGStab:  Solving for Uz, Initial residual = 0.24371603, Final residual = 0.020564998, No Iterations 1
DICPCG:  Solving for p, Initial residual = 0.068475611, Final residual = 0.00059436776, No Iterations 65
DICPCG:  Solving for p, Initial residual = 0.00023362565, Final residual = 1.9507422e-06, No Iterations 46
DICPCG:  Solving for p, Initial residual = 1.9507527e-06, Final residual = 1.791174e-08, No Iterations 71
time step continuity errors : sum local = 3.4125966e-09, global = -1.0354289e-10, cumulative = -2.5224394e-10
DILUPBiCGStab:  Solving for epsilon, Initial residual = 0.62980246, Final residual = 0.0013746025, No Iterations 1
DILUPBiCGStab:  Solving for k, Initial residual = 0.025764809, Final residual = 0.00032016841, No Iterations 1
ExecutionTime = 0.933 s  ClockTime = 1 s

fieldMinMax fieldMinMax write:
    min(mag(U)) = 0 in cell 0 at location (515.91796 212.55188 0) on processor 0
    max(mag(U)) = 35.949208 in cell 286 at location (293.36512 -593.0923 10.232786) on processor 7
    min(p) = -412.87522 in cell 2739 at location (-515.91796 514.66845 276.28521) on processor 4
    max(p) = 0 in cell 1784 at location (-171.97265 -824.715 10.232786) on processor 5
    min(k) = 0.00015763321 in cell 1646 at location (333.82927 -170.1291 173.95736) on processor 8
    max(k) = 2.5404716 in cell 2241 at location (50.580192 514.66845 30.698357) on processor 1
    min(epsilon) = 3.4354974e-05 in cell 456 at location (273.13304 192.41078 10.232786) on processor 0
    max(epsilon) = 0.15900532 in cell 285 at location (-455.22173 514.66845 10.232786) on processor 4
    min(nut) = 3.9633514e-06 in cell 3699 at location (171.97265 -49.282478 30.698357) on processor 0
    max(nut) = 65.102854 in cell 4398 at location (50.580192 524.739 276.28521) on processor 1

volFieldValue average write:
    weightedVolAverage() of U = (0.00057046028 -11.333601 -0.26228681)
    weightedVolAverage() of p = -155.82181

Time = 6

DILUPBiCGStab:  Solving for Ux, Initial residual = 0.24239533, Final residual = 0.013822581, No Iterations 1
DILUPBiCGStab:  Solving for Uy, Initial residual = 0.079774336, Final residual = 0.00050585028, No Iterations 1
DILUPBiCGStab:  Solving for Uz, Initial residual = 0.29904216, Final residual = 0.024691023, No Iterations 1
DICPCG:  Solving for p, Initial residual = 0.10606942, Final residual = 0.0010087904, No Iterations 59
DICPCG:  Solving for p, Initial residual = 0.00034395791, Final residual = 3.4313002e-06, No Iterations 41
DICPCG:  Solving for p, Initial residual = 3.4312972e-06, Final residual = 3.1345597e-08, No Iterations 72
time step continuity errors : sum local = 3.5839298e-09, global = 1.2214544e-10, cumulative = -1.3009851e-10
DILUPBiCGStab:  Solving for epsilon, Initial residual = 0.2974004, Final residual = 0.00082079284, No Iterations 1
DILUPBiCGStab:  Solving for k, Initial residual = 0.019061537, Final residual = 0.00027289297, No Iterations 1
ExecutionTime = 1.033 s  ClockTime = 1 s

fieldMinMax fieldMinMax write:
    min(mag(U)) = 0 in cell 0 at location (515.91796 212.55188 0) on processor 0
    max(mag(U)) = 35.636185 in cell 3148 at location (50.580192 -512.52788 10.232786) on processor 9
    min(p) = -647.45438 in cell 559 at location (515.91796 514.66845 276.28521) on processor 1
    max(p) = 0 in cell 1784 at location (-171.97265 -824.715 10.232786) on processor 5
    min(k) = 6.5570311e-05 in cell 1672 at location (374.29342 -149.988 235.35407) on processor 8
    max(k) = 2.5343081 in cell 713 at location (-252.90096 514.66845 30.698357) on processor 3
    min(epsilon) = 4.3490937e-05 in cell 3479 at location (70.812269 31.28194 10.232786) on processor 0
    max(epsilon) = 0.15171312 in cell 1 at location (495.68588 514.66845 10.232786) on processor 1
    min(nut) = 1.6065353e-06 in cell 3699 at location (171.97265 -49.282478 30.698357) on processor 0
    max(nut) = 144.25103 in cell 1882 at location (-131.5085 524.739 276.28521) on processor 3

volFieldValue average write:
    weightedVolAverage() of U = (0.00061401205 -10.122609 -0.18067911)
    weightedVolAverage() of p = -294.8971

Time = 7

DILUPBiCGStab:  Solving for Ux, Initial residual = 0.29288361, Final residual = 0.021156302, No Iterations 1
DILUPBiCGStab:  Solving for Uy, Initial residual = 0.11941498, Final residual = 0.00078709636, No Iterations 1
DILUPBiCGStab:  Solving for Uz, Initial residual = 0.18756891, Final residual = 0.017775499, No Iterations 1
DICPCG:  Solving for p, Initial residual = 0.051233145, Final residual = 0.00046227665, No Iterations 64
DICPCG:  Solving for p, Initial residual = 0.00052859785, Final residual = 4.8622805e-06, No Iterations 45
DICPCG:  Solving for p, Initial residual = 4.8623476e-06, Final residual = 4.4101422e-08, No Iterations 71
time step continuity errors : sum local = 2.6356386e-09, global = 2.3967601e-11, cumulative = -1.0613091e-10
DILUPBiCGStab:  Solving for epsilon, Initial residual = 0.11936337, Final residual = 0.00045283729, No Iterations 1
DILUPBiCGStab:  Solving for k, Initial residual = 0.015588173, Final residual = 0.00027224118, No Iterations 1
ExecutionTime = 1.16 s  ClockTime = 1 s

fieldMinMax fieldMinMax write:
    min(mag(U)) = 0 in cell 0 at location (515.91796 212.55188 0) on processor 0
    max(mag(U)) = 35.291513 in cell 3354 at location (50.580192 -532.66899 10.232786) on processor 9
    min(p) = -160.37087 in cell 8 at location (515.91796 494.52734 30.698357) on processor 1
    max(p) = 0 in cell 1784 at location (-171.97265 -824.715 10.232786) on processor 5
    min(k) = 2.705489e-05 in cell 216 at location (-111.27642 -512.52788 92.095071) on processor 5
    max(k) = 2.5091278 in cell 2241 at location (50.580192 514.66845 30.698357) on processor 1
    min(epsilon) = 5.7811325e-05 in cell 2456 at location (-515.91796 272.97519 10.232786) on processor 4
    max(epsilon) = 0.14901256 in cell 9 at location (-293.36512 514.66845 10.232786) on processor 4
    min(nut) = 6.3678744e-07 in cell 3699 at location (171.97265 -49.282478 30.698357) on processor 0
    max(nut) = 206.17813 in cell 3994 at location (111.27642 514.66845 286.518) on processor 1

volFieldValue average write:
    weightedVolAverage() of U = (0.0006877732 -9.0391198 -0.25988279)
    weightedVolAverage() of p = -76.096212

Time = 8

DILUPBiCGStab:  Solving for Ux, Initial residual = 0.34201462, Final residual = 0.025568299, No Iterations 1
DILUPBiCGStab:  Solving for Uy, Initial residual = 0.040404833, Final residual = 0.00025736949, No Iterations 1
DILUPBiCGStab:  Solving for Uz, Initial residual = 0.17866778, Final residual = 0.0015744127, No Iterations 1
DICPCG:  Solving for p, Initial residual = 0.15095149, Final residual = 0.0014132939, No Iterations 62
DICPCG:  Solving for p, Initial residual = 0.0002776143, Final residual = 2.4120855e-06, No Iterations 42
DICPCG:  Solving for p, Initial residual = 2.4120662e-06, Final residual = 2.1417551e-08, No Iterations 67
time step continuity errors : sum local = 2.2391749e-09, global = 1.5626709e-11, cumulative = -9.0504197e-11
DILUPBiCGStab:  Solving for epsilon, Initial residual = 0.046887838, Final residual = 0.00023432754, No Iterations 1
DILUPBiCGStab:  Solving for k, Initial residual = 0.01370026, Final residual = 0.00023155528, No Iterations 1
ExecutionTime = 1.274 s  ClockTime = 2 s

fieldMinMax fieldMinMax write:
    min(mag(U)) = 0 in cell 0 at location (515.91796 212.55188 0) on processor 0
    max(mag(U)) = 35.214572 in cell 2629 at location (-475.45381 -613.2334 10.232786) on processor 5
    min(p) = 0 in cell 1784 at location (-171.97265 -824.715 10.232786) on processor 5
    max(p) = 311.17104 in cell 2920 at location (-455.22173 434.10403 276.28521) on processor 4
    min(k) = 1.1082297e-05 in cell 216 at location (-111.27642 -512.52788 92.095071) on processor 5
    max(k) = 2.5100523 in cell 2444 at location (50.580192 494.52734 30.698357) on processor 1
    min(epsilon) = 7.3837526e-05 in cell 2648 at location (-515.91796 252.83409 10.232786) on processor 4
    max(epsilon) = 0.1501957 in cell 167 at location (-131.5085 514.66845 10.232786) on processor 3
    min(nut) = 2.4801089e-07 in cell 3699 at location (171.97265 -49.282478 30.698357) on processor 0
    max(nut) = 205.87826 in cell 559 at location (515.91796 514.66845 286.518) on processor 1

volFieldValue average write:
    weightedVolAverage() of U = (0.00082259204 -9.1187726 -0.36030129)
    weightedVolAverage() of p = 139.72733

Time = 9

DILUPBiCGStab:  Solving for Ux, Initial residual = 0.27843314, Final residual = 0.018843431, No Iterations 1
DILUPBiCGStab:  Solving for Uy, Initial residual = 0.073651753, Final residual = 0.00059150745, No Iterations 1
DILUPBiCGStab:  Solving for Uz, Initial residual = 0.072423223, Final residual = 0.00047084237, No Iterations 1
DICPCG:  Solving for p, Initial residual = 0.076978485, Final residual = 0.00075947569, No Iterations 59
DICPCG:  Solving for p, Initial residual = 0.00078048565, Final residual = 7.6529037e-06, No Iterations 67
DICPCG:  Solving for p, Initial residual = 7.6608906e-06, Final residual = 7.4036859e-08, No Iterations 70
time step continuity errors : sum local = 2.4104013e-09, global = 5.2688356e-11, cumulative = -3.7815841e-11
DILUPBiCGStab:  Solving for epsilon, Initial residual = 0.02066625, Final residual = 0.00014185363, No Iterations 1
DILUPBiCGStab:  Solving for k, Initial residual = 0.011960392, Final residual = 0.00019756163, No Iterations 1
ExecutionTime = 1.399 s  ClockTime = 2 s

fieldMinMax fieldMinMax write:
    min(mag(U)) = 0 in cell 0 at location (515.91796 212.55188 0) on processor 0
    max(mag(U)) = 35.304324 in cell 2112 at location (50.580192 -613.2334 10.232786) on processor 7
    min(p) = 0 in cell 1784 at location (-171.97265 -824.715 10.232786) on processor 5
    max(p) = 293.32153 in cell 650 at location (475.45381 514.66845 255.81964) on processor 1
    min(k) = 4.4686433e-06 in cell 2853 at location (131.5085 -633.37451 153.49179) on processor 7
    max(k) = 2.4965096 in cell 2444 at location (30.348115 494.52734 30.698357) on processor 1
    min(epsilon) = 3.7718161e-05 in cell 2294 at location (-50.580192 -754.22113 276.28521) on processor 5
    max(epsilon) = 0.15035868 in cell 3 at location (-273.13304 514.66845 10.232786) on processor 4
    min(nut) = 9.2352433e-08 in cell 572 at location (313.59719 -653.51561 30.698357) on processor 7
    max(nut) = 210.07086 in cell 559 at location (515.91796 514.66845 286.518) on processor 1

volFieldValue average write:
    weightedVolAverage() of U = (0.00094524883 -9.815646 -0.37399353)
    weightedVolAverage() of p = 136.22867

Time = 10

DILUPBiCGStab:  Solving for Ux, Initial residual = 0.20655271, Final residual = 0.013805312, No Iterations 1
DILUPBiCGStab:  Solving for Uy, Initial residual = 0.074634371, Final residual = 0.00060220027, No Iterations 1
DILUPBiCGStab:  Solving for Uz, Initial residual = 0.091445886, Final residual = 0.00070919397, No Iterations 1
DICPCG:  Solving for p, Initial residual = 0.063171115, Final residual = 0.00057793189, No Iterations 63
DICPCG:  Solving for p, Initial residual = 0.00040512633, Final residual = 3.8452902e-06, No Iterations 44
DICPCG:  Solving for p, Initial residual = 3.8453357e-06, Final residual = 3.797118e-08, No Iterations 70
time step continuity errors : sum local = 1.7413112e-09, global = -2.1321981e-11, cumulative = -5.9137823e-11
DILUPBiCGStab:  Solving for epsilon, Initial residual = 0.012096808, Final residual = 0.00012442993, No Iterations 1
DILUPBiCGStab:  Solving for k, Initial residual = 0.010505899, Final residual = 0.00017536563, No Iterations 1
ExecutionTime = 1.522 s  ClockTime = 2 s

fieldMinMax fieldMinMax write:
    min(mag(U)) = 0 in cell 0 at location (515.91796 212.55188 0) on processor 0
    max(mag(U)) = 35.339842 in cell 740 at location (414.75758 -794.50334 10.232786) on processor 7
    min(p) = -22.565049 in cell 3453 at location (-414.75758 333.39851 276.28521) on processor 4
    max(p) = 17.258304 in cell 680 at location (232.66888 192.41078 10.232786) on processor 0
    min(k) = 1.8127454e-06 in cell 2853 at location (131.5085 -633.37451 153.49179) on processor 7
    max(k) = 2.4919945 in cell 795 at location (-515.91796 494.52734 30.698357) on processor 4
    min(epsilon) = 1.5493859e-05 in cell 3271 at location (-91.044346 -331.25794 71.6295) on processor 9
    max(epsilon) = 0.15153242 in cell 6 at location (-273.13304 494.52734 10.232786) on processor 4
    min(nut) = 3.4377457e-08 in cell 572 at location (313.59719 -653.51561 30.698357) on processor 7
    max(nut) = 221.06164 in cell 559 at location (515.91796 514.66845 286.518) on processor 1

volFieldValue average write:
    weightedVolAverage() of U = (0.00097385275 -10.202653 -0.32352999)
    weightedVolAverage() of p = 2.5024156

Time = 11

DILUPBiCGStab:  Solving for Ux, Initial residual = 0.17096143, Final residual = 0.012755092, No Iterations 1
DILUPBiCGStab:  Solving for Uy, Initial residual = 0.026225162, Final residual = 0.00029806202, No Iterations 1
DILUPBiCGStab:  Solving for Uz, Initial residual = 0.12997321, Final residual = 0.0010275107, No Iterations 1
DICPCG:  Solving for p, Initial residual = 0.57356906, Final residual = 0.0053283372, No Iterations 59
DICPCG:  Solving for p, Initial residual = 0.00039148553, Final residual = 3.701938e-06, No Iterations 44
DICPCG:  Solving for p, Initial residual = 3.7019242e-06, Final residual = 3.2734672e-08, No Iterations 69
time step continuity errors : sum local = 1.4679286e-09, global = -2.3829926e-11, cumulative = -8.2967749e-11
DILUPBiCGStab:  Solving for epsilon, Initial residual = 0.0097352613, Final residual = 0.00011906907, No Iterations 1
DILUPBiCGStab:  Solving for k, Initial residual = 0.0092179269, Final residual = 0.0001439298, No Iterations 1
ExecutionTime = 1.624 s  ClockTime = 2 s

fieldMinMax fieldMinMax write:
    min(mag(U)) = 0 in cell 0 at location (515.91796 212.55188 0) on processor 0
    max(mag(U)) = 35.2443 in cell 1004 at location (374.29342 -794.50334 10.232786) on processor 7
    min(p) = -162.86379 in cell 1993 at location (455.22173 393.82182 276.28521) on processor 1
    max(p) = 0 in cell 1784 at location (-171.97265 -824.715 10.232786) on processor 5
    min(k) = 7.3279957e-07 in cell 2853 at location (131.5085 -633.37451 153.49179) on processor 7
    max(k) = 2.5014958 in cell 925 at location (-515.91796 474.38624 30.698357) on processor 4
    min(epsilon) = 6.4263361e-06 in cell 2464 at location (414.75758 -230.55242 276.28521) on processor 8
    max(epsilon) = 0.15256489 in cell 147 at location (-374.29342 474.38624 10.232786) on processor 4
    min(nut) = 1.4716556e-08 in cell 694 at location (313.59719 -673.65672 30.698357) on processor 7
    max(nut) = 233.31648 in cell 559 at location (515.91796 514.66845 286.518) on processor 1

volFieldValue average write:
    weightedVolAverage() of U = (0.0009377811 -10.033194 -0.28363569)
    weightedVolAverage() of p = -76.717566

Time = 12

DILUPBiCGStab:  Solving for Ux, Initial residual = 0.19877358, Final residual = 0.014775327, No Iterations 1
DILUPBiCGStab:  Solving for Uy, Initial residual = 0.046840022, Final residual = 0.0005424265, No Iterations 1
DILUPBiCGStab:  Solving for Uz, Initial residual = 0.099300029, Final residual = 0.00065423905, No Iterations 1
DICPCG:  Solving for p, Initial residual = 0.087277266, Final residual = 0.00084974956, No Iterations 60
DICPCG:  Solving for p, Initial residual = 0.0040122688, Final residual = 3.5275891e-05, No Iterations 45
DICPCG:  Solving for p, Initial residual = 3.5274953e-05, Final residual = 3.1271554e-07, No Iterations 69
time step continuity errors : sum local = 1.2389045e-09, global = 2.6824393e-11, cumulative = -5.6143356e-11
DILUPBiCGStab:  Solving for epsilon, Initial residual = 0.0099096515, Final residual = 0.00013377308, No Iterations 1
DILUPBiCGStab:  Solving for k, Initial residual = 0.0080192909, Final residual = 0.0001307555, No Iterations 1
ExecutionTime = 1.723 s  ClockTime = 2 s

fieldMinMax fieldMinMax write:
    min(mag(U)) = 0 in cell 0 at location (515.91796 212.55188 0) on processor 0
    max(mag(U)) = 35.096031 in cell 1004 at location (374.29342 -794.50334 10.232786) on processor 7
    min(p) = -97.608739 in cell 768 at location (455.22173 494.52734 235.35407) on processor 1
    max(p) = 0 in cell 1784 at location (-171.97265 -824.715 10.232786) on processor 5
    min(k) = 2.9501974e-07 in cell 2853 at location (131.5085 -633.37451 153.49179) on processor 7
    max(k) = 2.5153766 in cell 925 at location (-515.91796 474.38624 30.698357) on processor 4
    min(epsilon) = 2.6671336e-06 in cell 3593 at location (293.36512 91.705254 276.28521) on processor 0
    max(epsilon) = 0.15247171 in cell 147 at location (-374.29342 474.38624 10.232786) on processor 4
    min(nut) = 5.7283373e-09 in cell 975 at location (333.82927 -149.988 112.56064) on processor 8
    max(nut) = 244.74878 in cell 2071 at location (-131.5085 494.52734 286.518) on processor 3

volFieldValue average write:
    weightedVolAverage() of U = (0.00094307604 -9.7016034 -0.28774613)
    weightedVolAverage() of p = -43.915875

Time = 13

DILUPBiCGStab:  Solving for Ux, Initial residual = 0.24054542, Final residual = 0.018948769, No Iterations 1
DILUPBiCGStab:  Solving for Uy, Initial residual = 0.035139058, Final residual = 0.00040437208, No Iterations 1
DILUPBiCGStab:  Solving for Uz, Initial residual = 0.069514528, Final residual = 0.00060591165, No Iterations 1
DICPCG:  Solving for p, Initial residual = 0.12187934, Final residual = 0.0010872458, No Iterations 61
DICPCG:  Solving for p, Initial residual = 0.00042715019, Final residual = 4.1750764e-06, No Iterations 39
DICPCG:  Solving for p, Initial residual = 4.1750252e-06, Final residual = 3.2461296e-08, No Iterations 70
time step continuity errors : sum local = 9.4584094e-10, global = 1.1587568e-11, cumulative = -4.4555788e-11
DILUPBiCGStab:  Solving for epsilon, Initial residual = 0.010924667, Final residual = 0.00014806676, No Iterations 1
DILUPBiCGStab:  Solving for k, Initial residual = 0.0068601095, Final residual = 0.00012124615, No Iterations 1
ExecutionTime = 1.815 s  ClockTime = 2 s

fieldMinMax fieldMinMax write:
    min(mag(U)) = 0 in cell 0 at location (515.91796 212.55188 0) on processor 0
    max(mag(U)) = 34.985974 in cell 1162 at location (374.29342 -814.64445 10.232786) on processor 7
    min(p) = 0 in cell 1784 at location (-171.97265 -824.715 10.232786) on processor 5
    max(p) = 57.950056 in cell 3941 at location (-434.98965 293.1163 276.28521) on processor 4
    min(k) = 1.1785141e-07 in cell 2853 at location (131.5085 -633.37451 153.49179) on processor 7
    max(k) = 2.5242249 in cell 925 at location (-515.91796 474.38624 30.698357) on processor 4
    min(epsilon) = 1.0730452e-06 in cell 3400 at location (293.36512 111.84636 276.28521) on processor 0
    max(epsilon) = 0.15075681 in cell 38 at location (455.22173 474.38624 10.232786) on processor 1
    min(nut) = 1.8559533e-09 in cell 125 at location (171.97265 -149.988 51.163929) on processor 9
    max(nut) = 238.07529 in cell 797 at location (495.68588 494.52734 286.518) on processor 1

volFieldValue average write:
    weightedVolAverage() of U = (0.001062748 -9.5983494 -0.31253474)
    weightedVolAverage() of p = 23.834229

Time = 14

DILUPBiCGStab:  Solving for Ux, Initial residual = 0.21168131, Final residual = 0.017916751, No Iterations 1
DILUPBiCGStab:  Solving for Uy, Initial residual = 0.037202997, Final residual = 0.00040736204, No Iterations 1
DILUPBiCGStab:  Solving for Uz, Initial residual = 0.042499153, Final residual = 0.00037375272, No Iterations 1
DICPCG:  Solving for p, Initial residual = 0.18213311, Final residual = 0.0017475697, No Iterations 58
DICPCG:  Solving for p, Initial residual = 0.00064700813, Final residual = 6.4182728e-06, No Iterations 41
DICPCG:  Solving for p, Initial residual = 6.418218e-06, Final residual = 5.5711077e-08, No Iterations 70
time step continuity errors : sum local = 1.058078e-09, global = 1.1825635e-11, cumulative = -3.2730153e-11
DILUPBiCGStab:  Solving for epsilon, Initial residual = 0.012142676, Final residual = 0.00016978058, No Iterations 1
DILUPBiCGStab:  Solving for k, Initial residual = 0.0055909018, Final residual = 0.00010725053, No Iterations 1
ExecutionTime = 1.901 s  ClockTime = 2 s

fieldMinMax fieldMinMax write:
    min(mag(U)) = 0 in cell 0 at location (515.91796 212.55188 0) on processor 0
    max(mag(U)) = 34.905564 in cell 4110 at location (-475.45381 -794.50334 10.232786) on processor 5
    min(p) = 0 in cell 1784 at location (-171.97265 -824.715 10.232786) on processor 5
    max(p) = 91.253174 in cell 2195 at location (455.22173 353.53961 255.81964) on processor 1
    min(k) = 4.6708205e-08 in cell 2853 at location (131.5085 -633.37451 153.49179) on processor 7
    max(k) = 2.5332752 in cell 1066 at location (-515.91796 454.24513 30.698357) on processor 4
    min(epsilon) = 4.9256261e-07 in cell 3164 at location (30.348115 -552.81009 153.49179) on processor 7
    max(epsilon) = 0.14919983 in cell 41 at location (475.45381 454.24513 10.232786) on processor 1
    min(nut) = 5.4446787e-10 in cell 125 at location (171.97265 -149.988 51.163929) on processor 9
    max(nut) = 239.60099 in cell 678 at location (515.91796 494.52734 286.518) on processor 1

volFieldValue average write:
    weightedVolAverage() of U = (0.0012846656 -9.7289021 -0.32385897)
    weightedVolAverage() of p = 45.54476

Time = 15

DILUPBiCGStab:  Solving for Ux, Initial residual = 0.14294082, Final residual = 0.011862963, No Iterations 1
DILUPBiCGStab:  Solving for Uy, Initial residual = 0.045245059, Final residual = 0.00043291855, No Iterations 1
DILUPBiCGStab:  Solving for Uz, Initial residual = 0.057775921, Final residual = 0.00053016742, No Iterations 1
DICPCG:  Solving for p, Initial residual = 0.095278215, Final residual = 0.00086468442, No Iterations 59
DICPCG:  Solving for p, Initial residual = 0.001444811, Final residual = 1.2673334e-05, No Iterations 39
DICPCG:  Solving for p, Initial residual = 1.267244e-05, Final residual = 1.0172448e-07, No Iterations 68
time step continuity errors : sum local = 6.9549558e-10, global = 3.6052811e-11, cumulative = 3.3226576e-12
DILUPBiCGStab:  Solving for epsilon, Initial residual = 0.013119744, Final residual = 0.0001953712, No Iterations 1
DILUPBiCGStab:  Solving for k, Initial residual = 0.0041090079, Final residual = 8.6332934e-05, No Iterations 1
ExecutionTime = 2.002 s  ClockTime = 2 s

fieldMinMax fieldMinMax write:
    min(mag(U)) = 0 in cell 0 at location (515.91796 212.55188 0) on processor 0
    max(mag(U)) = 34.824778 in cell 4238 at location (-475.45381 -814.64445 10.232786) on processor 5
    min(p) = 0 in cell 1784 at location (-171.97265 -824.715 10.232786) on processor 5
    max(p) = 40.061726 in cell 1214 at location (414.75758 514.66845 276.28521) on processor 1
    min(k) = 1.8378604e-08 in cell 2853 at location (131.5085 -633.37451 153.49179) on processor 7
    max(k) = 2.5394484 in cell 1066 at location (-515.91796 454.24513 30.698357) on processor 4
    min(epsilon) = 1.8314827e-07 in cell 4845 at location (-414.75758 -190.27021 255.81964) on processor 2
    max(epsilon) = 0.14890519 in cell 664 at location (-515.91796 494.52734 10.232786) on processor 4
    min(nut) = 1.3919193e-10 in cell 1298 at location (232.66888 152.12857 51.163929) on processor 0
    max(nut) = 238.04964 in cell 4135 at location (131.5085 474.38624 286.518) on processor 1

volFieldValue average write:
    weightedVolAverage() of U = (0.0015285826 -9.8688428 -0.31422244)
    weightedVolAverage() of p = 18.432229

Time = 16

DILUPBiCGStab:  Solving for Ux, Initial residual = 0.12277527, Final residual = 0.010472146, No Iterations 1
DILUPBiCGStab:  Solving for Uy, Initial residual = 0.036050453, Final residual = 0.00027630053, No Iterations 1
DILUPBiCGStab:  Solving for Uz, Initial residual = 0.077140661, Final residual = 0.00073694811, No Iterations 1
DICPCG:  Solving for p, Initial residual = 0.17533696, Final residual = 0.0015578419, No Iterations 59
DICPCG:  Solving for p, Initial residual = 0.00063992038, Final residual = 6.0709422e-06, No Iterations 43
DICPCG:  Solving for p, Initial residual = 6.0710271e-06, Final residual = 5.5244796e-08, No Iterations 69
time step continuity errors : sum local = 7.3579143e-10, global = -1.4857477e-11, cumulative = -1.153482e-11
DILUPBiCGStab:  Solving for epsilon, Initial residual = 0.013424275, Final residual = 0.00021004893, No Iterations 1
DILUPBiCGStab:  Solving for k, Initial residual = 0.0025857263, Final residual = 6.0535082e-05, No Iterations 1
ExecutionTime = 2.134 s  ClockTime = 2 s

fieldMinMax fieldMinMax write:
    min(mag(U)) = 0 in cell 0 at location (515.91796 212.55188 0) on processor 0
    max(mag(U)) = 34.673297 in cell 4203 at location (10.116038 -814.64445 10.232786) on processor 7
    min(p) = -30.126261 in cell 4213 at location (-434.98965 252.83409 276.28521) on processor 4
    max(p) = 0 in cell 1784 at location (-171.97265 -824.715 10.232786) on processor 5
    min(k) = 7.1824939e-09 in cell 2853 at location (131.5085 -633.37451 153.49179) on processor 7
    max(k) = 2.5415354 in cell 1066 at location (-515.91796 454.24513 30.698357) on processor 4
    min(epsilon) = 8.7572283e-08 in cell 868 at location (414.75758 -572.95119 235.35407) on processor 7
    max(epsilon) = 0.14905013 in cell 2235 at location (50.580192 494.52734 10.232786) on processor 1
    min(nut) = 1.8428447e-11 in cell 1298 at location (232.66888 152.12857 51.163929) on processor 0
    max(nut) = 236.29639 in cell 4135 at location (131.5085 474.38624 286.518) on processor 1

volFieldValue average write:
    weightedVolAverage() of U = (0.0017097632 -9.8783894 -0.29900194)
    weightedVolAverage() of p = -10.79958

Time = 17

DILUPBiCGStab:  Solving for Ux, Initial residual = 0.15073595, Final residual = 0.00079154262, No Iterations 1
DILUPBiCGStab:  Solving for Uy, Initial residual = 0.03025115, Final residual = 0.00018736159, No Iterations 1
DILUPBiCGStab:  Solving for Uz, Initial residual = 0.068174445, Final residual = 0.00057082831, No Iterations 1
DICPCG:  Solving for p, Initial residual = 0.24274339, Final residual = 0.0021017591, No Iterations 58
DICPCG:  Solving for p, Initial residual = 0.0016786229, Final residual = 1.424546e-05, No Iterations 65
DICPCG:  Solving for p, Initial residual = 1.4231254e-05, Final residual = 1.4163922e-07, No Iterations 68
time step continuity errors : sum local = 6.5895813e-10, global = 3.8969297e-12, cumulative = -7.6378898e-12
DILUPBiCGStab:  Solving for epsilon, Initial residual = 0.013005408, Final residual = 0.00023497728, No Iterations 1
DILUPBiCGStab:  Solving for k, Initial residual = 0.0014149569, Final residual = 3.7782001e-05, No Iterations 1
ExecutionTime = 2.232 s  ClockTime = 3 s

fieldMinMax fieldMinMax write:
    min(mag(U)) = 0 in cell 0 at location (515.91796 212.55188 0) on processor 0
    max(mag(U)) = 34.441294 in cell 4203 at location (10.116038 -814.64445 10.232786) on processor 7
    min(p) = -29.851759 in cell 2214 at location (515.91796 313.2574 276.28521) on processor 1
    max(p) = 0 in cell 1784 at location (-171.97265 -824.715 10.232786) on processor 5
    min(k) = 2.7870361e-09 in cell 2853 at location (131.5085 -633.37451 153.49179) on processor 7
    max(k) = 2.5474142 in cell 1217 at location (-515.91796 434.10403 30.698357) on processor 4
    min(epsilon) = 9.3291011e-08 in cell 341 at location (495.68588 -572.95119 214.8885) on processor 7
    max(epsilon) = 0.14921224 in cell 1449 at location (151.74058 474.38624 10.232786) on processor 1
    min(nut) = 2.4061092e-12 in cell 1870 at location (212.43681 131.98746 71.6295) on processor 0
    max(nut) = 234.93638 in cell 3697 at location (212.43681 454.24513 286.518) on processor 1

volFieldValue average write:
    weightedVolAverage() of U = (0.0017918126 -9.8025646 -0.29217304)
    weightedVolAverage() of p = -12.151495

Time = 18

DILUPBiCGStab:  Solving for Ux, Initial residual = 0.16321392, Final residual = 0.00093276481, No Iterations 1
DILUPBiCGStab:  Solving for Uy, Initial residual = 0.031018876, Final residual = 0.00017353551, No Iterations 1
DILUPBiCGStab:  Solving for Uz, Initial residual = 0.047097103, Final residual = 0.00030363858, No Iterations 1
DICPCG:  Solving for p, Initial residual = 0.20377015, Final residual = 0.0017046583, No Iterations 59
DICPCG:  Solving for p, Initial residual = 0.0008370471, Final residual = 7.1202426e-06, No Iterations 44
DICPCG:  Solving for p, Initial residual = 7.1201845e-06, Final residual = 6.2376078e-08, No Iterations 70
time step continuity errors : sum local = 4.8740627e-10, global = 4.5378979e-12, cumulative = -3.0999918e-12
DILUPBiCGStab:  Solving for epsilon, Initial residual = 0.012584143, Final residual = 0.00025977205, No Iterations 1
DILUPBiCGStab:  Solving for k, Initial residual = 0.00068004397, Final residual = 2.0575157e-05, No Iterations 1
ExecutionTime = 2.32 s  ClockTime = 3 s

fieldMinMax fieldMinMax write:
    min(mag(U)) = 0 in cell 0 at location (515.91796 212.55188 0) on processor 0
    max(mag(U)) = 34.126742 in cell 4203 at location (10.116038 -814.64445 10.232786) on processor 7
    min(p) = -0.47024 in cell 2283 at location (-252.90096 -794.50334 10.232786) on processor 5
    max(p) = 13.993563 in cell 4420 at location (-394.5255 172.26967 276.28521) on processor 4
    min(k) = 1.075617e-09 in cell 2853 at location (131.5085 -633.37451 153.49179) on processor 7
    max(k) = 2.5545693 in cell 1217 at location (-515.91796 434.10403 30.698357) on processor 4
    min(epsilon) = 6.7891928e-08 in cell 2646 at location (91.044346 -552.81009 153.49179) on processor 7
    max(epsilon) = 0.14927235 in cell 274 at location (-131.5085 474.38624 10.232786) on processor 3
    min(nut) = 2.1698212e-13 in cell 2449 at location (131.5085 131.98746 51.163929) on processor 0
    max(nut) = 235.52043 in cell 3859 at location (192.20473 454.24513 286.518) on processor 1

volFieldValue average write:
    weightedVolAverage() of U = (0.0017685873 -9.750437 -0.29311524)
    weightedVolAverage() of p = 4.6848026

Time = 19

DILUPBiCGStab:  Solving for Ux, Initial residual = 0.14088752, Final residual = 0.00077163294, No Iterations 1
DILUPBiCGStab:  Solving for Uy, Initial residual = 0.036207811, Final residual = 0.00020312869, No Iterations 1
DILUPBiCGStab:  Solving for Uz, Initial residual = 0.036955016, Final residual = 0.0002205209, No Iterations 1
DICPCG:  Solving for p, Initial residual = 0.32185505, Final residual = 0.0030834452, No Iterations 57
DICPCG:  Solving for p, Initial residual = 0.00081993445, Final residual = 7.6035089e-06, No Iterations 44
DICPCG:  Solving for p, Initial residual = 7.6031994e-06, Final residual = 6.9028404e-08, No Iterations 70
time step continuity errors : sum local = 5.6707254e-10, global = 2.8911048e-11, cumulative = 2.5811057e-11
DILUPBiCGStab:  Solving for epsilon, Initial residual = 0.011767223, Final residual = 0.0002825331, No Iterations 1
DILUPBiCGStab:  Solving for k, Initial residual = 0.00029492574, Final residual = 1.0243107e-05, No Iterations 1
ExecutionTime = 2.418 s  ClockTime = 3 s

fieldMinMax fieldMinMax write:
    min(mag(U)) = 0 in cell 0 at location (515.91796 212.55188 0) on processor 0
    max(mag(U)) = 33.717108 in cell 4203 at location (10.116038 -814.64445 10.232786) on processor 7
    min(p) = -0.062417683 in cell 2283 at location (-252.90096 -794.50334 10.232786) on processor 5
    max(p) = 29.679923 in cell 4208 at location (-434.98965 232.69299 255.81964) on processor 4
    min(k) = 4.1273735e-10 in cell 2853 at location (131.5085 -633.37451 153.49179) on processor 7
    max(k) = 2.5596238 in cell 1377 at location (-515.91796 413.96293 30.698357) on processor 4
    min(epsilon) = 5.7190158e-08 in cell 4805 at location (-455.22173 -754.22113 255.81964) on processor 5
    max(epsilon) = 0.14920736 in cell 200 at location (-394.5255 474.38624 10.232786) on processor 4
    min(nut) = 2.4720372e-14 in cell 1319 at location (293.36512 111.84636 71.6295) on processor 0
    max(nut) = 232.88696 in cell 2924 at location (-475.45381 454.24513 286.518) on processor 4

volFieldValue average write:
    weightedVolAverage() of U = (0.0017114553 -9.762833 -0.29300597)
    weightedVolAverage() of p = 15.845513

Time = 20

DILUPBiCGStab:  Solving for Ux, Initial residual = 0.10505967, Final residual = 0.00048163746, No Iterations 1
DILUPBiCGStab:  Solving for Uy, Initial residual = 0.040983601, Final residual = 0.00023428552, No Iterations 1
DILUPBiCGStab:  Solving for Uz, Initial residual = 0.04251743, Final residual = 0.00035022503, No Iterations 1
DICPCG:  Solving for p, Initial residual = 0.14518033, Final residual = 0.0014061704, No Iterations 57
DICPCG:  Solving for p, Initial residual = 0.0021397207, Final residual = 1.6866002e-05, No Iterations 37
DICPCG:  Solving for p, Initial residual = 1.6866925e-05, Final residual = 1.6616488e-07, No Iterations 66
time step continuity errors : sum local = 4.8238628e-10, global = 1.2997781e-11, cumulative = 3.8808838e-11
DILUPBiCGStab:  Solving for epsilon, Initial residual = 0.010929285, Final residual = 0.00030468132, No Iterations 1
DILUPBiCGStab:  Solving for k, Initial residual = 0.00011949744, Final residual = 4.7482843e-06, No Iterations 1
ExecutionTime = 2.583 s  ClockTime = 3 s

fieldMinMax fieldMinMax write:
    min(mag(U)) = 0 in cell 0 at location (515.91796 212.55188 0) on processor 0
    max(mag(U)) = 33.179218 in cell 4203 at location (10.116038 -814.64445 10.232786) on processor 7
    min(p) = -0.25211865 in cell 4237 at location (-495.68588 -794.50334 10.232786) on processor 5
    max(p) = 22.004271 in cell 1882 at location (-131.5085 514.66845 276.28521) on processor 3
    min(k) = 1.5757429e-10 in cell 2853 at location (131.5085 -633.37451 153.49179) on processor 7
    max(k) = 2.5682482 in cell 1377 at location (-515.91796 413.96293 30.698357) on processor 4
    min(epsilon) = 4.3205003e-08 in cell 4887 at location (-455.22173 -814.64445 255.81964) on processor 5
    max(epsilon) = 0.14909939 in cell 2642 at location (30.348115 454.24513 10.232786) on processor 1
    min(nut) = 3.5301383e-15 in cell 2684 at location (-30.348115 91.705254 51.163929) on processor 3
    max(nut) = 231.95056 in cell 4261 at location (151.74058 434.10403 286.518) on processor 1

volFieldValue average write:
    weightedVolAverage() of U = (0.0016781262 -9.8011352 -0.28657932)
    weightedVolAverage() of p = 12.562143

Time = 21

DILUPBiCGStab:  Solving for Ux, Initial residual = 0.092452259, Final residual = 0.0072822837, No Iterations 1
DILUPBiCGStab:  Solving for Uy, Initial residual = 0.040015809, Final residual = 0.00023475367, No Iterations 1
DILUPBiCGStab:  Solving for Uz, Initial residual = 0.048201282, Final residual = 0.00045276557, No Iterations 1
DICPCG:  Solving for p, Initial residual = 0.15775785, Final residual = 0.0015293607, No Iterations 58
DICPCG:  Solving for p, Initial residual = 0.0017862895, Final residual = 1.4131765e-05, No Iterations 44
DICPCG:  Solving for p, Initial residual = 1.4131401e-05, Final residual = 1.3363983e-07, No Iterations 68
time step continuity errors : sum local = 4.1289912e-10, global = -1.3225532e-11, cumulative = 2.5583305e-11
DILUPBiCGStab:  Solving for epsilon, Initial residual = 0.010182543, Final residual = 0.00032424108, No Iterations 1
DILUPBiCGStab:  Solving for k, Initial residual = 4.5993204e-05, Final residual = 1.9342494e-06, No Iterations 1
ExecutionTime = 2.734 s  ClockTime = 3 s

fieldMinMax fieldMinMax write:
    min(mag(U)) = 0 in cell 0 at location (515.91796 212.55188 0) on processor 0
    max(mag(U)) = 32.536902 in cell 3769 at location (70.812269 -814.64445 10.232786) on processor 7
    min(p) = -1.5163288 in cell 4591 at location (-414.75758 152.12857 276.28521) on processor 4
    max(p) = 7.5990111 in cell 505 at location (50.580192 -190.27021 10.232786) on processor 9
    min(k) = 6.0085852e-11 in cell 2853 at location (131.5085 -633.37451 153.49179) on processor 7
    max(k) = 2.5725288 in cell 1377 at location (-515.91796 413.96293 30.698357) on processor 4
    min(epsilon) = 3.5433549e-08 in cell 4887 at location (-455.22173 -814.64445 255.81964) on processor 5
    max(epsilon) = 0.14905624 in cell 429 at location (-455.22173 474.38624 10.232786) on processor 4
    min(nut) = 3.7401177e-16 in cell 4000 at location (-475.45381 91.705254 51.163929) on processor 4
    max(nut) = 232.66697 in cell 954 at location (515.91796 454.24513 286.518) on processor 1

volFieldValue average write:
    weightedVolAverage() of U = (0.0016776776 -9.8176162 -0.27571835)
    weightedVolAverage() of p = 3.7846127

Time = 22

DILUPBiCGStab:  Solving for Ux, Initial residual = 0.10682133, Final residual = 0.0081430494, No Iterations 1
DILUPBiCGStab:  Solving for Uy, Initial residual = 0.037825758, Final residual = 0.00023026046, No Iterations 1
DILUPBiCGStab:  Solving for Uz, Initial residual = 0.045002313, Final residual = 0.00039482026, No Iterations 1
DICPCG:  Solving for p, Initial residual = 0.30862406, Final residual = 0.0030145371, No Iterations 56
DICPCG:  Solving for p, Initial residual = 0.0024835379, Final residual = 2.3122476e-05, No Iterations 45
DICPCG:  Solving for p, Initial residual = 2.3113206e-05, Final residual = 2.2731217e-07, No Iterations 64
time step continuity errors : sum local = 4.7259903e-10, global = -2.3883783e-11, cumulative = 1.6995217e-12
DILUPBiCGStab:  Solving for epsilon, Initial residual = 0.0093111435, Final residual = 0.00033799471, No Iterations 1
DILUPBiCGStab:  Solving for k, Initial residual = 1.666411e-05, Final residual = 7.2930843e-07, No Iterations 1
ExecutionTime = 2.828 s  ClockTime = 3 s

fieldMinMax fieldMinMax write:
    min(mag(U)) = 0 in cell 0 at location (515.91796 212.55188 0) on processor 0
    max(mag(U)) = 31.765972 in cell 3769 at location (70.812269 -814.64445 10.232786) on processor 7
    min(p) = -5.901766 in cell 4522 at location (-434.98965 192.41078 276.28521) on processor 4
    max(p) = 4.0056791 in cell 1980 at location (232.66888 -290.97573 10.232786) on processor 8
    min(k) = 2.2916892e-11 in cell 2853 at location (131.5085 -633.37451 153.49179) on processor 7
    max(k) = 2.5771781 in cell 1545 at location (-515.91796 393.82182 30.698357) on processor 4
    min(epsilon) = 2.8545913e-08 in cell 4887 at location (-455.22173 -814.64445 255.81964) on processor 5
    max(epsilon) = 0.14905892 in cell 450 at location (-171.97265 474.38624 10.232786) on processor 3
    min(nut) = 4.9773631e-17 in cell 3984 at location (50.580192 91.705254 92.095071) on processor 0
    max(nut) = 232.39441 in cell 2920 at location (-455.22173 434.10403 286.518) on processor 4

volFieldValue average write:
    weightedVolAverage() of U = (0.0016569713 -9.8053503 -0.26476454)
    weightedVolAverage() of p = 0.26081571

Time = 23

DILUPBiCGStab:  Solving for Ux, Initial residual = 0.11436782, Final residual = 0.0091152162, No Iterations 1
DILUPBiCGStab:  Solving for Uy, Initial residual = 0.037514965, Final residual = 0.0002227125, No Iterations 1
DILUPBiCGStab:  Solving for Uz, Initial residual = 0.036824505, Final residual = 0.00029007484, No Iterations 1
DICPCG:  Solving for p, Initial residual = 0.51193109, Final residual = 0.0042118801, No Iterations 56
DICPCG:  Solving for p, Initial residual = 0.0015488755, Final residual = 1.5238783e-05, No Iterations 39
DICPCG:  Solving for p, Initial residual = 1.5233638e-05, Final residual = 1.325327e-07, No Iterations 71
time step continuity errors : sum local = 3.3507774e-10, global = 2.0751105e-11, cumulative = 2.2450627e-11
DILUPBiCGStab:  Solving for epsilon, Initial residual = 0.0085911083, Final residual = 0.00035070962, No Iterations 1
DILUPBiCGStab:  Solving for k, Initial residual = 5.9401576e-06, Final residual = 2.6173576e-07, No Iterations 1
ExecutionTime = 2.919 s  ClockTime = 3 s

fieldMinMax fieldMinMax write:
    min(mag(U)) = 0 in cell 0 at location (515.91796 212.55188 0) on processor 0
    max(mag(U)) = 30.815247 in cell 3769 at location (70.812269 -814.64445 10.232786) on processor 7
    min(p) = -0.72957779 in cell 1479 at location (-151.74058 -794.50334 10.232786) on processor 5
    max(p) = 6.9508043 in cell 3394 at location (-313.59719 51.423045 276.28521) on processor 2
    min(k) = 8.7557254e-12 in cell 2853 at location (131.5085 -633.37451 153.49179) on processor 7
    max(k) = 2.5822062 in cell 1545 at location (-515.91796 393.82182 30.698357) on processor 4
    min(epsilon) = 2.4307566e-08 in cell 4883 at location (-434.98965 -814.64445 276.28521) on processor 5
    max(epsilon) = 0.14910561 in cell 1633 at location (131.5085 474.38624 10.232786) on processor 1
    min(nut) = 5.0199015e-18 in cell 1496 at location (273.13304 91.705254 51.163929) on processor 0
    max(nut) = 231.01232 in cell 2920 at location (-455.22173 434.10403 286.518) on processor 4

volFieldValue average write:
    weightedVolAverage() of U = (0.0016045777 -9.7881046 -0.2553249)
    weightedVolAverage() of p = 3.1841167

Time = 24

DILUPBiCGStab:  Solving for Ux, Initial residual = 0.10038337, Final residual = 0.0084845837, No Iterations 1
DILUPBiCGStab:  Solving for Uy, Initial residual = 0.038735599, Final residual = 0.00020526562, No Iterations 1
DILUPBiCGStab:  Solving for Uz, Initial residual = 0.030573359, Final residual = 0.00022572903, No Iterations 1
DICPCG:  Solving for p, Initial residual = 0.28949379, Final residual = 0.0023972573, No Iterations 58
DICPCG:  Solving for p, Initial residual = 0.0010248742, Final residual = 8.8682165e-06, No Iterations 44
DICPCG:  Solving for p, Initial residual = 8.8679916e-06, Final residual = 8.4785463e-08, No Iterations 66
time step continuity errors : sum local = 2.8563472e-10, global = 2.9527134e-12, cumulative = 2.540334e-11
DILUPBiCGStab:  Solving for epsilon, Initial residual = 0.007938297, Final residual = 0.00035869549, No Iterations 1
DILUPBiCGStab:  Solving for k, Initial residual = 2.0441721e-06, Final residual = 9.2326895e-08, No Iterations 1
ExecutionTime = 3.013 s  ClockTime = 3 s

fieldMinMax fieldMinMax write:
    min(mag(U)) = 0 in cell 0 at location (515.91796 212.55188 0) on processor 0
    max(mag(U)) = 29.683996 in cell 3769 at location (70.812269 -814.64445 10.232786) on processor 7
    min(p) = -0.60365344 in cell 1479 at location (-151.74058 -794.50334 10.232786) on processor 5
    max(p) = 11.461996 in cell 4647 at location (-414.75758 111.84636 255.81964) on processor 4
    min(k) = 3.3479994e-12 in cell 2853 at location (131.5085 -633.37451 153.49179) on processor 7
    max(k) = 2.5852205 in cell 1545 at location (-515.91796 393.82182 30.698357) on processor 4
    min(epsilon) = 2.0077168e-08 in cell 3359 at location (-111.27642 -814.64445 276.28521) on processor 5
    max(epsilon) = 0.14914019 in cell 2642 at location (50.580192 454.24513 10.232786) on processor 1
    min(nut) = 7.4349595e-19 in cell 1496 at location (273.13304 91.705254 51.163929) on processor 0
    max(nut) = 230.82608 in cell 2915 at location (-434.98965 413.96293 286.518) on processor 4

volFieldValue average write:
    weightedVolAverage() of U = (0.0015246241 -9.7847053 -0.24590312)
    weightedVolAverage() of p = 6.8196781

Time = 25

DILUPBiCGStab:  Solving for Ux, Initial residual = 0.083209636, Final residual = 0.0075533887, No Iterations 1
DILUPBiCGStab:  Solving for Uy, Initial residual = 0.039945028, Final residual = 0.0001835683, No Iterations 1
DILUPBiCGStab:  Solving for Uz, Initial residual = 0.02939752, Final residual = 0.00020082585, No Iterations 1
DICPCG:  Solving for p, Initial residual = 0.17938186, Final residual = 0.0014654523, No Iterations 39
DICPCG:  Solving for p, Initial residual = 0.0013699474, Final residual = 1.2567429e-05, No Iterations 68
DICPCG:  Solving for p, Initial residual = 1.2640973e-05, Final residual = 1.2310428e-07, No Iterations 59
time step continuity errors : sum local = 2.7340376e-10, global = 6.1186623e-11, cumulative = 8.6589962e-11
DILUPBiCGStab:  Solving for epsilon, Initial residual = 0.00733132, Final residual = 0.00037897106, No Iterations 1
DILUPBiCGStab:  Solving for k, Initial residual = 6.818257e-07, Final residual = 3.0905391e-08, No Iterations 1
ExecutionTime = 3.105 s  ClockTime = 3 s

fieldMinMax fieldMinMax write:
    min(mag(U)) = 0 in cell 0 at location (515.91796 212.55188 0) on processor 0
    max(mag(U)) = 28.380304 in cell 3769 at location (70.812269 -814.64445 10.232786) on processor 7
    min(p) = -0.60042862 in cell 1336 at location (-131.5085 -794.50334 10.232786) on processor 5
    max(p) = 10.436335 in cell 2275 at location (-171.97265 514.66845 276.28521) on processor 3
    min(k) = 1.28057e-12 in cell 2853 at location (131.5085 -633.37451 153.49179) on processor 7
    max(k) = 2.5900036 in cell 1720 at location (-515.91796 373.68072 30.698357) on processor 4
    min(epsilon) = 1.738266e-08 in cell 3359 at location (-111.27642 -814.64445 276.28521) on processor 5
    max(epsilon) = 0.1491444 in cell 2432 at location (70.812269 454.24513 10.232786) on processor 1
    min(nut) = 1.0672856e-19 in cell 1703 at location (293.36512 71.564149 71.6295) on processor 0
    max(nut) = 232.25718 in cell 1109 at location (515.91796 434.10403 286.518) on processor 1

volFieldValue average write:
    weightedVolAverage() of U = (0.0014130278 -9.7928477 -0.23474647)
    weightedVolAverage() of p = 6.9352577

Time = 26

DILUPBiCGStab:  Solving for Ux, Initial residual = 0.079261406, Final residual = 0.0077561584, No Iterations 1
DILUPBiCGStab:  Solving for Uy, Initial residual = 0.038723325, Final residual = 0.00014598716, No Iterations 1
DILUPBiCGStab:  Solving for Uz, Initial residual = 0.030422868, Final residual = 0.0001984091, No Iterations 1
DICPCG:  Solving for p, Initial residual = 0.16848268, Final residual = 0.0016132445, No Iterations 56
DICPCG:  Solving for p, Initial residual = 0.0039038369, Final residual = 3.6389731e-05, No Iterations 44
DICPCG:  Solving for p, Initial residual = 3.6379321e-05, Final residual = 3.4461635e-07, No Iterations 65
time step continuity errors : sum local = 2.876547e-10, global = 1.8776412e-12, cumulative = 8.8467604e-11
DILUPBiCGStab:  Solving for epsilon, Initial residual = 0.0067758458, Final residual = 0.00042461795, No Iterations 1
DILUPBiCGStab:  Solving for k, Initial residual = 2.249692e-07, Final residual = 1.026847e-08, No Iterations 1
ExecutionTime = 3.189 s  ClockTime = 3 s

fieldMinMax fieldMinMax write:
    min(mag(U)) = 0 in cell 0 at location (515.91796 212.55188 0) on processor 0
    max(mag(U)) = 26.923641 in cell 3769 at location (70.812269 -814.64445 10.232786) on processor 7
    min(p) = -0.67331383 in cell 3604 at location (70.812269 -794.50334 10.232786) on processor 7
    max(p) = 7.0080866 in cell 2077 at location (-151.74058 514.66845 276.28521) on processor 3
    min(k) = 4.8946133e-13 in cell 2853 at location (131.5085 -633.37451 153.49179) on processor 7
    max(k) = 2.5958245 in cell 4325 at location (-10.116038 -814.64445 10.232786) on processor 7
    min(epsilon) = 1.46952e-08 in cell 3359 at location (-111.27642 -814.64445 276.28521) on processor 5
    max(epsilon) = 0.14913989 in cell 2432 at location (70.812269 454.24513 10.232786) on processor 1
    min(nut) = 1.3586484e-20 in cell 3062 at location (131.5085 71.564149 51.163929) on processor 0
    max(nut) = 230.63828 in cell 3473 at location (-515.91796 434.10403 286.518) on processor 4

volFieldValue average write:
    weightedVolAverage() of U = (0.0012537288 -9.8000051 -0.22184887)
    weightedVolAverage() of p = 4.3883649

Time = 27

DILUPBiCGStab:  Solving for Ux, Initial residual = 0.084722493, Final residual = 0.00042665617, No Iterations 1
DILUPBiCGStab:  Solving for Uy, Initial residual = 0.035919606, Final residual = 0.0034798707, No Iterations 1
DILUPBiCGStab:  Solving for Uz, Initial residual = 0.029435379, Final residual = 0.0001870293, No Iterations 1
DICPCG:  Solving for p, Initial residual = 0.25859149, Final residual = 0.0024548526, No Iterations 56
DICPCG:  Solving for p, Initial residual = 0.0043411038, Final residual = 4.2892459e-05, No Iterations 46
DICPCG:  Solving for p, Initial residual = 4.2863717e-05, Final residual = 4.0332586e-07, No Iterations 73
time step continuity errors : sum local = 3.4595052e-10, global = -6.1388822e-12, cumulative = 8.2328722e-11
DILUPBiCGStab:  Solving for epsilon, Initial residual = 0.0063209533, Final residual = 0.00042127593, No Iterations 1
DILUPBiCGStab:  Solving for k, Initial residual = 7.4437555e-08, Final residual = 3.3921594e-09, No Iterations 1
ExecutionTime = 3.317 s  ClockTime = 4 s

fieldMinMax fieldMinMax write:
    min(mag(U)) = 0 in cell 0 at location (515.91796 212.55188 0) on processor 0
    max(mag(U)) = 25.30846 in cell 3769 at location (70.812269 -814.64445 10.232786) on processor 7
    min(p) = -0.66902684 in cell 2638 at location (-293.36512 -794.50334 10.232786) on processor 5
    max(p) = 4.744158 in cell 2033 at location (333.82927 -371.54015 10.232786) on processor 8
    min(k) = 1.8695448e-13 in cell 2853 at location (131.5085 -633.37451 153.49179) on processor 7
    max(k) = 3.0378742 in cell 1992 at location (273.13304 -814.64445 10.232786) on processor 7
    min(epsilon) = 1.3042994e-08 in cell 3359 at location (-111.27642 -814.64445 276.28521) on processor 5
    max(epsilon) = 0.16380123 in cell 4325 at location (-10.116038 -814.64445 10.232786) on processor 7
    min(nut) = 1.8795275e-21 in cell 432 at location (495.68588 51.423045 71.6295) on processor 0
    max(nut) = 229.24506 in cell 3101 at location (-434.98965 393.82182 286.518) on processor 4

volFieldValue average write:
    weightedVolAverage() of U = (0.0010553471 -9.7993881 -0.20842503)
    weightedVolAverage() of p = 2.4651271

Time = 28

DILUPBiCGStab:  Solving for Ux, Initial residual = 0.1051156, Final residual = 0.00048699625, No Iterations 1
DILUPBiCGStab:  Solving for Uy, Initial residual = 0.033579534, Final residual = 0.0030746947, No Iterations 1
DILUPBiCGStab:  Solving for Uz, Initial residual = 0.027309048, Final residual = 0.00012412478, No Iterations 1
DICPCG:  Solving for p, Initial residual = 0.31574303, Final residual = 0.0031277796, No Iterations 28
DICPCG:  Solving for p, Initial residual = 0.0029135736, Final residual = 2.5645296e-05, No Iterations 72
DICPCG:  Solving for p, Initial residual = 2.7075564e-05, Final residual = 2.2408208e-07, No Iterations 44
time step continuity errors : sum local = 2.5609628e-10, global = 1.1567075e-11, cumulative = 9.3895797e-11
DILUPBiCGStab:  Solving for epsilon, Initial residual = 0.0059243583, Final residual = 0.00035799278, No Iterations 1
DILUPBiCGStab:  Solving for k, Initial residual = 2.4398041e-08, Final residual = 1.1360689e-09, No Iterations 1
ExecutionTime = 3.43 s  ClockTime = 4 s

fieldMinMax fieldMinMax write:
    min(mag(U)) = 0 in cell 0 at location (515.91796 212.55188 0) on processor 0
    max(mag(U)) = 23.630224 in cell 3769 at location (70.812269 -814.64445 10.232786) on processor 7
    min(p) = -0.56152469 in cell 2638 at location (-293.36512 -794.50334 10.232786) on processor 5
    max(p) = 4.7193655 in cell 50 at location (-91.044346 -512.52788 10.232786) on processor 5
    min(k) = 7.1172686e-14 in cell 2853 at location (131.5085 -633.37451 153.49179) on processor 7
    max(k) = 3.3279654 in cell 1945 at location (-192.20473 -814.64445 10.232786) on processor 5
    min(epsilon) = 1.137128e-08 in cell 3359 at location (-111.27642 -814.64445 276.28521) on processor 5
    max(epsilon) = 0.20737616 in cell 1992 at location (273.13304 -814.64445 10.232786) on processor 7
    min(nut) = 2.1825245e-22 in cell 1908 at location (293.36512 51.423045 71.6295) on processor 0
    max(nut) = 231.46489 in cell 1274 at location (515.91796 413.96293 286.518) on processor 1

volFieldValue average write:
    weightedVolAverage() of U = (0.00083273431 -9.7952697 -0.19550633)
    weightedVolAverage() of p = 2.2271036

Time = 29

DILUPBiCGStab:  Solving for Ux, Initial residual = 0.10914744, Final residual = 0.010385512, No Iterations 1
DILUPBiCGStab:  Solving for Uy, Initial residual = 0.031324874, Final residual = 0.002607338, No Iterations 1
DILUPBiCGStab:  Solving for Uz, Initial residual = 0.025650157, Final residual = 0.00010176139, No Iterations 1
DICPCG:  Solving for p, Initial residual = 0.27030349, Final residual = 0.0025900777, No Iterations 58
DICPCG:  Solving for p, Initial residual = 0.0019732059, Final residual = 1.7773666e-05, No Iterations 67
DICPCG:  Solving for p, Initial residual = 1.7740952e-05, Final residual = 1.5799062e-07, No Iterations 75
time step continuity errors : sum local = 2.1603904e-10, global = -5.4369203e-13, cumulative = 9.3352105e-11
DILUPBiCGStab:  Solving for epsilon, Initial residual = 0.0056002996, Final residual = 0.00031474136, No Iterations 1
DILUPBiCGStab:  Solving for k, Initial residual = 8.1434111e-09, Final residual = 3.7736665e-10, No Iterations 1
ExecutionTime = 3.549 s  ClockTime = 4 s

fieldMinMax fieldMinMax write:
    min(mag(U)) = 0 in cell 0 at location (515.91796 212.55188 0) on processor 0
    max(mag(U)) = 21.958846 in cell 3769 at location (70.812269 -814.64445 10.232786) on processor 7
    min(p) = -0.47850332 in cell 3604 at location (70.812269 -794.50334 10.232786) on processor 7
    max(p) = 4.8802622 in cell 74 at location (-111.27642 -512.52788 10.232786) on processor 5
    min(k) = 2.7041594e-14 in cell 2853 at location (131.5085 -633.37451 153.49179) on processor 7
    max(k) = 3.660292 in cell 1992 at location (273.13304 -814.64445 10.232786) on processor 7
    min(epsilon) = 1.0437369e-08 in cell 3359 at location (-111.27642 -814.64445 276.28521) on processor 5
    max(epsilon) = 0.23777838 in cell 1945 at location (-192.20473 -814.64445 10.232786) on processor 5
    min(nut) = 2.9908774e-23 in cell 1908 at location (293.36512 51.423045 71.6295) on processor 0
    max(nut) = 231.20472 in cell 3642 at location (-515.91796 413.96293 286.518) on processor 4

volFieldValue average write:
    weightedVolAverage() of U = (0.00060678841 -9.7927554 -0.1833247)
    weightedVolAverage() of p = 2.7608538

Time = 30

DILUPBiCGStab:  Solving for Ux, Initial residual = 0.099777685, Final residual = 0.0099020759, No Iterations 1
DILUPBiCGStab:  Solving for Uy, Initial residual = 0.028968244, Final residual = 0.0022014099, No Iterations 1
DILUPBiCGStab:  Solving for Uz, Initial residual = 0.024076041, Final residual = 0.00015417799, No Iterations 1
DICPCG:  Solving for p, Initial residual = 0.23356826, Final residual = 0.002280981, No Iterations 37
DICPCG:  Solving for p, Initial residual = 0.0021734257, Final residual = 1.8897356e-05, No Iterations 64
DICPCG:  Solving for p, Initial residual = 1.8611274e-05, Final residual = 1.6984554e-07, No Iterations 43
time step continuity errors : sum local = 1.9636129e-10, global = -8.8427226e-12, cumulative = 8.4509382e-11
DILUPBiCGStab:  Solving for epsilon, Initial residual = 0.00534277, Final residual = 0.00026542517, No Iterations 1
DILUPBiCGStab:  Solving for k, Initial residual = 2.6955115e-09, Final residual = 1.2514599e-10, No Iterations 1
ExecutionTime = 3.749 s  ClockTime = 4 s

fieldMinMax fieldMinMax write:
    min(mag(U)) = 0 in cell 0 at location (515.91796 212.55188 0) on processor 0
    max(mag(U)) = 20.372541 in cell 4238 at location (-475.45381 -814.64445 10.232786) on processor 5
    min(p) = -0.44214608 in cell 2159 at location (232.66888 -794.50334 10.232786) on processor 7
    max(p) = 4.7768723 in cell 1379 at location (394.5255 514.66845 276.28521) on processor 1
    min(k) = 1.027022e-14 in cell 2853 at location (131.5085 -633.37451 153.49179) on processor 7
    max(k) = 3.9768516 in cell 1992 at location (273.13304 -814.64445 10.232786) on processor 7
    min(epsilon) = 9.3808429e-09 in cell 3359 at location (-111.27642 -814.64445 276.28521) on processor 5
    max(epsilon) = 0.27426965 in cell 1992 at location (273.13304 -814.64445 10.232786) on processor 7
    min(nut) = 4.0327509e-24 in cell 1740 at location (354.06135 31.28194 92.095071) on processor 0
    max(nut) = 229.60932 in cell 3642 at location (-515.91796 413.96293 286.518) on processor 4

volFieldValue average write:
    weightedVolAverage() of U = (0.00040822283 -9.7934368 -0.17163349)
    weightedVolAverage() of p = 2.8213056

Time = 31

DILUPBiCGStab:  Solving for Ux, Initial residual = 0.095256717, Final residual = 0.00059824218, No Iterations 1
DILUPBiCGStab:  Solving for Uy, Initial residual = 0.026035736, Final residual = 0.0018648176, No Iterations 1
DILUPBiCGStab:  Solving for Uz, Initial residual = 0.023313062, Final residual = 0.00025066684, No Iterations 1
DICPCG:  Solving for p, Initial residual = 0.21501173, Final residual = 0.0017561381, No Iterations 56
DICPCG:  Solving for p, Initial residual = 0.0023821159, Final residual = 1.9843756e-05, No Iterations 64
DICPCG:  Solving for p, Initial residual = 1.9857733e-05, Final residual = 1.9724009e-07, No Iterations 67
time step continuity errors : sum local = 1.5215684e-10, global = 8.9580414e-12, cumulative = 9.3467424e-11
DILUPBiCGStab:  Solving for epsilon, Initial residual = 0.0050907126, Final residual = 0.00023556401, No Iterations 1
DILUPBiCGStab:  Solving for k, Initial residual = 8.985092e-10, Final residual = 4.14613e-11, No Iterations 1
ExecutionTime = 3.886 s  ClockTime = 4 s

fieldMinMax fieldMinMax write:
    min(mag(U)) = 0 in cell 0 at location (515.91796 212.55188 0) on processor 0
    max(mag(U)) = 18.888439 in cell 4238 at location (-475.45381 -814.64445 10.232786) on processor 5
    min(p) = -0.4015754 in cell 1199 at location (-111.27642 -794.50334 10.232786) on processor 5
    max(p) = 4.1929665 in cell 1924 at location (333.82927 514.66845 276.28521) on processor 1
    min(k) = 3.8974477e-15 in cell 2853 at location (131.5085 -633.37451 153.49179) on processor 7
    max(k) = 4.2757832 in cell 1316 at location (354.06135 -814.64445 10.232786) on processor 7
    min(epsilon) = 8.755911e-09 in cell 3526 at location (-131.5085 -814.64445 276.28521) on processor 5
    max(epsilon) = 0.31060842 in cell 1992 at location (273.13304 -814.64445 10.232786) on processor 7
    min(nut) = 5.1292438e-25 in cell 3972 at location (91.044346 31.28194 71.6295) on processor 0
    max(nut) = 229.65548 in cell 1448 at location (515.91796 393.82182 286.518) on processor 1

volFieldValue average write:
    weightedVolAverage() of U = (0.00021589441 -9.7953549 -0.16032727)
    weightedVolAverage() of p = 2.1276424

Time = 32

DILUPBiCGStab:  Solving for Ux, Initial residual = 0.094568848, Final residual = 0.00049887353, No Iterations 1
DILUPBiCGStab:  Solving for Uy, Initial residual = 0.022842951, Final residual = 0.0016121351, No Iterations 1
DILUPBiCGStab:  Solving for Uz, Initial residual = 0.023324315, Final residual = 0.00022697269, No Iterations 1
DICPCG:  Solving for p, Initial residual = 0.2241435, Final residual = 0.0020145834, No Iterations 57
DICPCG:  Solving for p, Initial residual = 0.0033857962, Final residual = 2.8094635e-05, No Iterations 69
DICPCG:  Solving for p, Initial residual = 2.81208e-05, Final residual = 2.7222752e-07, No Iterations 66
time step continuity errors : sum local = 1.4054943e-10, global = -3.5867924e-12, cumulative = 8.9880631e-11
DILUPBiCGStab:  Solving for epsilon, Initial residual = 0.0048897501, Final residual = 0.00019677686, No Iterations 1
DILUPBiCGStab:  Solving for k, Initial residual = 3.022704e-10, Final residual = 1.368843e-11, No Iterations 1
ExecutionTime = 3.999 s  ClockTime = 4 s

fieldMinMax fieldMinMax write:
    min(mag(U)) = 0 in cell 0 at location (515.91796 212.55188 0) on processor 0
    max(mag(U)) = 17.500906 in cell 4238 at location (-475.45381 -814.64445 10.232786) on processor 5
    min(p) = -0.40705852 in cell 2431 at location (-252.90096 -29.141373 153.49179) on processor 2
    max(p) = 3.6951287 in cell 564 at location (273.13304 -633.37451 10.232786) on processor 7
    min(k) = 1.478979e-15 in cell 2853 at location (131.5085 -633.37451 153.49179) on processor 7
    max(k) = 4.5415873 in cell 636 at location (455.22173 -814.64445 10.232786) on processor 7
    min(epsilon) = 8.0536601e-09 in cell 2021 at location (-70.812269 -814.64445 153.49179) on processor 5
    max(epsilon) = 0.3462802 in cell 1316 at location (354.06135 -814.64445 10.232786) on processor 7
    min(nut) = 7.4315037e-26 in cell 3383 at location (-475.45381 11.140836 71.6295) on processor 2
    max(nut) = 230.69224 in cell 3803 at location (-515.91796 393.82182 286.518) on processor 4

volFieldValue average write:
    weightedVolAverage() of U = (3.2270129e-05 -9.7961959 -0.14959683)
    weightedVolAverage() of p = 1.2564054

Time = 33

DILUPBiCGStab:  Solving for Ux, Initial residual = 0.10466052, Final residual = 0.00052519532, No Iterations 1
DILUPBiCGStab:  Solving for Uy, Initial residual = 0.020059191, Final residual = 0.0013640511, No Iterations 1
DILUPBiCGStab:  Solving for Uz, Initial residual = 0.02317676, Final residual = 0.00016765958, No Iterations 1
DICPCG:  Solving for p, Initial residual = 0.25961855, Final residual = 0.0020040556, No Iterations 56
DICPCG:  Solving for p, Initial residual = 0.0027867546, Final residual = 2.6196264e-05, No Iterations 77
DICPCG:  Solving for p, Initial residual = 2.6231146e-05, Final residual = 2.569915e-07, No Iterations 71
time step continuity errors : sum local = 1.2473422e-10, global = -5.049858e-12, cumulative = 8.4830773e-11
DILUPBiCGStab:  Solving for epsilon, Initial residual = 0.0047320768, Final residual = 0.00017131469, No Iterations 1
DILUPBiCGStab:  Solving for k, Initial residual = 1.0377464e-10, Final residual = 4.6398648e-12, No Iterations 1
ExecutionTime = 4.149 s  ClockTime = 4 s

fieldMinMax fieldMinMax write:
    min(mag(U)) = 0 in cell 0 at location (515.91796 212.55188 0) on processor 0
    max(mag(U)) = 16.218396 in cell 4238 at location (-475.45381 -814.64445 10.232786) on processor 5
    min(p) = -0.73760225 in cell 1794 at location (434.98965 11.140836 153.49179) on processor 0
    max(p) = 3.2902959 in cell 564 at location (273.13304 -633.37451 10.232786) on processor 7
    min(k) = 5.612239e-16 in cell 2853 at location (131.5085 -633.37451 153.49179) on processor 7
    max(k) = 4.7526237 in cell 1316 at location (354.06135 -814.64445 10.232786) on processor 7
    min(epsilon) = 7.4745405e-09 in cell 3526 at location (-131.5085 -814.64445 276.28521) on processor 5
[...]
    min(p) = -0.013433809 in cell 2261 at location (515.91796 -814.64445 276.28521) on processor 7
    max(p) = 4.1299068 in cell 2739 at location (-515.91796 514.66845 276.28521) on processor 4
    min(k) = 1.971465 in cell 4892 at location (10.116038 -814.64445 276.28521) on processor 7
    max(k) = 2.65959 in cell 3896 at location (-434.98965 -170.1291 30.698357) on processor 2
    min(epsilon) = 0.0054961728 in cell 546 at location (-252.90096 524.739 276.28521) on processor 4
    max(epsilon) = 0.16117039 in cell 3174 at location (-333.82927 -814.64445 10.232786) on processor 5
    min(nut) = 1.4828448 in cell 1640 at location (91.044346 514.66845 0) on processor 1
    max(nut) = 196.52031 in cell 701 at location (10.116038 514.66845 286.518) on processor 3

volFieldValue average write:
    weightedVolAverage() of U = (-7.1067488e-10 -9.7944042 -0.017793879)
    weightedVolAverage() of p = 1.457251

Time = 684

DILUPBiCGStab:  Solving for Ux, Initial residual = 0.00014671442, Final residual = 1.0266539e-05, No Iterations 1
DILUPBiCGStab:  Solving for Uy, Initial residual = 5.960177e-10, Final residual = 2.8144388e-11, No Iterations 1
DILUPBiCGStab:  Solving for Uz, Initial residual = 5.2143545e-08, Final residual = 9.7400315e-10, No Iterations 1
DICPCG:  Solving for p, Initial residual = 4.915175e-07, Final residual = 4.1296256e-09, No Iterations 60
DICPCG:  Solving for p, Initial residual = 4.1296335e-09, Final residual = 3.4095759e-11, No Iterations 47
DICPCG:  Solving for p, Initial residual = 3.4095839e-11, Final residual = 9.964211e-13, No Iterations 53
time step continuity errors : sum local = 1.7013172e-16, global = 3.5245264e-18, cumulative = 1.3752347e-18
DILUPBiCGStab:  Solving for epsilon, Initial residual = 2.9983965e-08, Final residual = 9.4846631e-10, No Iterations 1
DILUPBiCGStab:  Solving for k, Initial residual = 1.672848e-07, Final residual = 4.0876269e-09, No Iterations 1
ExecutionTime = 1.373 s  ClockTime = 2 s

fieldMinMax fieldMinMax write:
    min(mag(U)) = 0 in cell 0 at location (515.91796 212.55188 0) on processor 0
    max(mag(U)) = 11.729133 in cell 664 at location (495.68588 524.739 276.28521) on processor 1
    min(p) = -0.013433829 in cell 2261 at location (515.91796 -814.64445 276.28521) on processor 7
    max(p) = 4.1299044 in cell 2739 at location (-515.91796 514.66845 276.28521) on processor 4
    min(k) = 1.971465 in cell 4892 at location (10.116038 -814.64445 276.28521) on processor 7
    max(k) = 2.65959 in cell 3896 at location (-434.98965 -170.1291 30.698357) on processor 2
    min(epsilon) = 0.0054961728 in cell 546 at location (-252.90096 524.739 276.28521) on processor 4
    max(epsilon) = 0.16117038 in cell 879 at location (414.75758 -814.64445 10.232786) on processor 7
    min(nut) = 1.4828447 in cell 35 at location (414.75758 514.66845 0) on processor 1
    max(nut) = 196.52031 in cell 701 at location (10.116038 514.66845 286.518) on processor 3

volFieldValue average write:
    weightedVolAverage() of U = (-6.4453019e-10 -9.7944042 -0.017793879)
    weightedVolAverage() of p = 1.4572497

Time = 685

DILUPBiCGStab:  Solving for Ux, Initial residual = 0.00010724656, Final residual = 7.8350865e-06, No Iterations 1
DILUPBiCGStab:  Solving for Uy, Initial residual = 9.5306141e-10, Final residual = 7.246094e-11, No Iterations 1
DILUPBiCGStab:  Solving for Uz, Initial residual = 5.2862839e-08, Final residual = 1.088027e-09, No Iterations 1
DICPCG:  Solving for p, Initial residual = 5.2805117e-07, Final residual = 5.0119051e-09, No Iterations 63
DICPCG:  Solving for p, Initial residual = 5.0118962e-09, Final residual = 4.9353338e-11, No Iterations 46
DICPCG:  Solving for p, Initial residual = 4.9353213e-11, Final residual = 9.5953628e-13, No Iterations 62
time step continuity errors : sum local = 1.6450933e-16, global = 9.7201828e-19, cumulative = 2.347253e-18
DILUPBiCGStab:  Solving for epsilon, Initial residual = 3.0335608e-08, Final residual = 9.5681839e-10, No Iterations 1
DILUPBiCGStab:  Solving for k, Initial residual = 1.831551e-07, Final residual = 3.9754757e-09, No Iterations 1
ExecutionTime = 1.683 s  ClockTime = 2 s

fieldMinMax fieldMinMax write:
    min(mag(U)) = 0 in cell 0 at location (515.91796 212.55188 0) on processor 0
    max(mag(U)) = 11.729133 in cell 664 at location (495.68588 524.739 276.28521) on processor 1
    min(p) = -0.013433815 in cell 2261 at location (515.91796 -814.64445 276.28521) on processor 7
    max(p) = 4.1299065 in cell 559 at location (515.91796 514.66845 276.28521) on processor 1
    min(k) = 1.971465 in cell 4892 at location (10.116038 -814.64445 276.28521) on processor 7
    max(k) = 2.65959 in cell 3896 at location (-434.98965 -170.1291 30.698357) on processor 2
    min(epsilon) = 0.0054961728 in cell 546 at location (-252.90096 524.739 276.28521) on processor 4
    max(epsilon) = 0.16117041 in cell 363 at location (515.91796 -814.64445 10.232786) on processor 7
    min(nut) = 1.4828447 in cell 0 at location (-252.90096 514.66845 0) on processor 4
    max(nut) = 196.52031 in cell 701 at location (10.116038 514.66845 286.518) on processor 3

volFieldValue average write:
    weightedVolAverage() of U = (-6.2797434e-10 -9.7944042 -0.01779388)
    weightedVolAverage() of p = 1.4572509

Time = 686

DILUPBiCGStab:  Solving for Ux, Initial residual = 0.00014451827, Final residual = 1.0054005e-05, No Iterations 1
DILUPBiCGStab:  Solving for Uy, Initial residual = 5.7429195e-10, Final residual = 2.3101991e-11, No Iterations 1
DILUPBiCGStab:  Solving for Uz, Initial residual = 5.3731972e-08, Final residual = 9.8970492e-10, No Iterations 1
DICPCG:  Solving for p, Initial residual = 5.1513074e-07, Final residual = 4.4237268e-09, No Iterations 61
DICPCG:  Solving for p, Initial residual = 4.4237309e-09, Final residual = 3.6689676e-11, No Iterations 72
DICPCG:  Solving for p, Initial residual = 3.6689881e-11, Final residual = 9.7874833e-13, No Iterations 58
time step continuity errors : sum local = 1.6687638e-16, global = 4.2178442e-18, cumulative = 6.5650972e-18
DILUPBiCGStab:  Solving for epsilon, Initial residual = 2.9291174e-08, Final residual = 9.1639099e-10, No Iterations 1
DILUPBiCGStab:  Solving for k, Initial residual = 1.6401539e-07, Final residual = 3.8744205e-09, No Iterations 1
ExecutionTime = 2.026 s  ClockTime = 2 s

fieldMinMax fieldMinMax write:
    min(mag(U)) = 0 in cell 0 at location (515.91796 212.55188 0) on processor 0
    max(mag(U)) = 11.729133 in cell 664 at location (495.68588 524.739 276.28521) on processor 1
    min(p) = -0.013433826 in cell 2261 at location (515.91796 -814.64445 276.28521) on processor 7
    max(p) = 4.1299054 in cell 2739 at location (-515.91796 514.66845 276.28521) on processor 4
    min(k) = 1.971465 in cell 4892 at location (10.116038 -814.64445 276.28521) on processor 7
    max(k) = 2.65959 in cell 3896 at location (-434.98965 -170.1291 30.698357) on processor 2
    min(epsilon) = 0.0054961728 in cell 546 at location (-252.90096 524.739 276.28521) on processor 4
    max(epsilon) = 0.16117039 in cell 1016 at location (394.5255 -814.64445 10.232786) on processor 7
    min(nut) = 1.4828448 in cell 955 at location (171.97265 514.66845 0) on processor 1
    max(nut) = 196.52031 in cell 841 at location (-10.116038 514.66845 286.518) on processor 3

volFieldValue average write:
    weightedVolAverage() of U = (-6.5697107e-10 -9.7944042 -0.01779388)
    weightedVolAverage() of p = 1.4572503

Time = 687

DILUPBiCGStab:  Solving for Ux, Initial residual = 0.00012939812, Final residual = 9.1811222e-06, No Iterations 1
DILUPBiCGStab:  Solving for Uy, Initial residual = 6.3367081e-10, Final residual = 3.5743304e-11, No Iterations 1
DILUPBiCGStab:  Solving for Uz, Initial residual = 5.0469734e-08, Final residual = 9.2046907e-10, No Iterations 1
DICPCG:  Solving for p, Initial residual = 4.6081156e-07, Final residual = 3.8000603e-09, No Iterations 59
DICPCG:  Solving for p, Initial residual = 3.8000631e-09, Final residual = 3.6915688e-11, No Iterations 48
DICPCG:  Solving for p, Initial residual = 3.691569e-11, Final residual = 7.7277601e-13, No Iterations 60
time step continuity errors : sum local = 1.3736592e-16, global = -1.544446e-18, cumulative = 5.0206512e-18
DILUPBiCGStab:  Solving for epsilon, Initial residual = 2.8558215e-08, Final residual = 8.9824581e-10, No Iterations 1
DILUPBiCGStab:  Solving for k, Initial residual = 1.5658283e-07, Final residual = 3.5423159e-09, No Iterations 1
ExecutionTime = 2.284 s  ClockTime = 3 s

fieldMinMax fieldMinMax write:
    min(mag(U)) = 0 in cell 0 at location (515.91796 212.55188 0) on processor 0
    max(mag(U)) = 11.729133 in cell 664 at location (495.68588 524.739 276.28521) on processor 1
    min(p) = -0.013433835 in cell 2261 at location (515.91796 -814.64445 276.28521) on processor 7
    max(p) = 4.1299046 in cell 2739 at location (-515.91796 514.66845 276.28521) on processor 4
    min(k) = 1.971465 in cell 4892 at location (10.116038 -814.64445 276.28521) on processor 7
    max(k) = 2.65959 in cell 3896 at location (-434.98965 -170.1291 30.698357) on processor 2
    min(epsilon) = 0.0054961728 in cell 546 at location (-252.90096 524.739 276.28521) on processor 4
    max(epsilon) = 0.1611704 in cell 1162 at location (374.29342 -814.64445 10.232786) on processor 7
    min(nut) = 1.4828447 in cell 120 at location (-111.27642 514.66845 0) on processor 3
    max(nut) = 196.52031 in cell 701 at location (10.116038 514.66845 286.518) on processor 3

volFieldValue average write:
    weightedVolAverage() of U = (-5.9155997e-10 -9.7944042 -0.01779388)
    weightedVolAverage() of p = 1.4572498

Time = 688

DILUPBiCGStab:  Solving for Ux, Initial residual = 0.00011569491, Final residual = 8.2700518e-06, No Iterations 1
DILUPBiCGStab:  Solving for Uy, Initial residual = 8.5712349e-10, Final residual = 6.6276933e-11, No Iterations 1
DILUPBiCGStab:  Solving for Uz, Initial residual = 4.7128339e-08, Final residual = 9.7171301e-10, No Iterations 1
DICPCG:  Solving for p, Initial residual = 4.5446191e-07, Final residual = 4.5016118e-09, No Iterations 64
DICPCG:  Solving for p, Initial residual = 4.5015975e-09, Final residual = 3.74961e-11, No Iterations 45
DICPCG:  Solving for p, Initial residual = 3.7495949e-11, Final residual = 9.6627252e-13, No Iterations 61
time step continuity errors : sum local = 1.655434e-16, global = -3.046805e-18, cumulative = 1.9738462e-18
DILUPBiCGStab:  Solving for epsilon, Initial residual = 3.0218874e-08, Final residual = 9.6306279e-10, No Iterations 1
DILUPBiCGStab:  Solving for k, Initial residual = 1.539488e-07, Final residual = 3.757258e-09, No Iterations 1
ExecutionTime = 2.563 s  ClockTime = 3 s

fieldMinMax fieldMinMax write:
    min(mag(U)) = 0 in cell 0 at location (515.91796 212.55188 0) on processor 0
    max(mag(U)) = 11.729133 in cell 664 at location (495.68588 524.739 276.28521) on processor 1
    min(p) = -0.013433811 in cell 2261 at location (515.91796 -814.64445 276.28521) on processor 7
    max(p) = 4.1299082 in cell 559 at location (515.91796 514.66845 276.28521) on processor 1
    min(k) = 1.971465 in cell 4892 at location (10.116038 -814.64445 276.28521) on processor 7
    max(k) = 2.65959 in cell 3896 at location (-434.98965 -170.1291 30.698357) on processor 2
    min(epsilon) = 0.0054961728 in cell 546 at location (-252.90096 524.739 276.28521) on processor 4
    max(epsilon) = 0.16117038 in cell 879 at location (414.75758 -814.64445 10.232786) on processor 7
    min(nut) = 1.4828447 in cell 34 at location (-333.82927 514.66845 0) on processor 4
    max(nut) = 196.52031 in cell 701 at location (10.116038 514.66845 286.518) on processor 3

volFieldValue average write:
    weightedVolAverage() of U = (-5.5595764e-10 -9.7944042 -0.01779388)
    weightedVolAverage() of p = 1.4572518

Time = 689

DILUPBiCGStab:  Solving for Ux, Initial residual = 0.00012768918, Final residual = 9.0326106e-06, No Iterations 1
DILUPBiCGStab:  Solving for Uy, Initial residual = 9.9977561e-10, Final residual = 8.3134271e-11, No Iterations 1
DILUPBiCGStab:  Solving for Uz, Initial residual = 5.0459287e-08, Final residual = 1.0883192e-09, No Iterations 1
DICPCG:  Solving for p, Initial residual = 4.886956e-07, Final residual = 3.907629e-09, No Iterations 61
DICPCG:  Solving for p, Initial residual = 3.9076317e-09, Final residual = 3.8091089e-11, No Iterations 71
DICPCG:  Solving for p, Initial residual = 3.8091169e-11, Final residual = 9.3782921e-13, No Iterations 61
time step continuity errors : sum local = 1.6167533e-16, global = 1.1633511e-18, cumulative = 3.1371973e-18
DILUPBiCGStab:  Solving for epsilon, Initial residual = 3.1418284e-08, Final residual = 9.9662101e-10, No Iterations 1
DILUPBiCGStab:  Solving for k, Initial residual = 1.6776622e-07, Final residual = 3.7694551e-09, No Iterations 1
ExecutionTime = 2.781 s  ClockTime = 3 s

fieldMinMax fieldMinMax write:
    min(mag(U)) = 0 in cell 0 at location (515.91796 212.55188 0) on processor 0
    max(mag(U)) = 11.729133 in cell 664 at location (495.68588 524.739 276.28521) on processor 1
    min(p) = -0.01343382 in cell 2261 at location (515.91796 -814.64445 276.28521) on processor 7
    max(p) = 4.1299076 in cell 559 at location (515.91796 514.66845 276.28521) on processor 1
    min(k) = 1.971465 in cell 4892 at location (10.116038 -814.64445 276.28521) on processor 7
    max(k) = 2.65959 in cell 3896 at location (-434.98965 -170.1291 30.698357) on processor 2
    min(epsilon) = 0.0054961728 in cell 546 at location (-252.90096 524.739 276.28521) on processor 4
    max(epsilon) = 0.16117039 in cell 1644 at location (313.59719 -814.64445 10.232786) on processor 7
    min(nut) = 1.4828448 in cell 9 at location (-293.36512 514.66845 0) on processor 4
    max(nut) = 196.52031 in cell 701 at location (10.116038 514.66845 286.518) on processor 3

volFieldValue average write:
    weightedVolAverage() of U = (-5.7453659e-10 -9.7944042 -0.01779388)
    weightedVolAverage() of p = 1.4572514

Time = 690

DILUPBiCGStab:  Solving for Ux, Initial residual = 0.00013202128, Final residual = 9.506304e-06, No Iterations 1
DILUPBiCGStab:  Solving for Uy, Initial residual = 7.9283386e-10, Final residual = 5.5906302e-11, No Iterations 1
DILUPBiCGStab:  Solving for Uz, Initial residual = 5.1610065e-08, Final residual = 1.0008258e-09, No Iterations 1
DICPCG:  Solving for p, Initial residual = 4.8450619e-07, Final residual = 4.8355657e-09, No Iterations 59
DICPCG:  Solving for p, Initial residual = 4.8355741e-09, Final residual = 4.664103e-11, No Iterations 46
DICPCG:  Solving for p, Initial residual = 4.664089e-11, Final residual = 8.9559457e-13, No Iterations 68
time step continuity errors : sum local = 1.5596183e-16, global = -5.6435014e-18, cumulative = -2.5063041e-18
DILUPBiCGStab:  Solving for epsilon, Initial residual = 2.9438089e-08, Final residual = 9.2576823e-10, No Iterations 1
DILUPBiCGStab:  Solving for k, Initial residual = 1.569781e-07, Final residual = 3.9076513e-09, No Iterations 1
ExecutionTime = 3.035 s  ClockTime = 3 s

fieldMinMax fieldMinMax write:
    min(mag(U)) = 0 in cell 0 at location (515.91796 212.55188 0) on processor 0
    max(mag(U)) = 11.729133 in cell 664 at location (495.68588 524.739 276.28521) on processor 1
    min(p) = -0.013433838 in cell 2261 at location (515.91796 -814.64445 276.28521) on processor 7
    max(p) = 4.1299054 in cell 559 at location (515.91796 514.66845 276.28521) on processor 1
    min(k) = 1.971465 in cell 4892 at location (10.116038 -814.64445 276.28521) on processor 7
    max(k) = 2.65959 in cell 3896 at location (-434.98965 -170.1291 30.698357) on processor 2
    min(epsilon) = 0.0054961728 in cell 546 at location (-252.90096 524.739 276.28521) on processor 4
    max(epsilon) = 0.1611704 in cell 4458 at location (-515.91796 -814.64445 10.232786) on processor 5
    min(nut) = 1.4828447 in cell 34 at location (-50.580192 514.66845 0) on processor 3
    max(nut) = 196.52031 in cell 701 at location (10.116038 514.66845 286.518) on processor 3

volFieldValue average write:
    weightedVolAverage() of U = (-5.6148496e-10 -9.7944042 -0.01779388)
    weightedVolAverage() of p = 1.4572503

Time = 691

DILUPBiCGStab:  Solving for Ux, Initial residual = 8.3705459e-05, Final residual = 5.6720621e-06, No Iterations 1
DILUPBiCGStab:  Solving for Uy, Initial residual = 6.1850913e-10, Final residual = 3.3994988e-11, No Iterations 1
DILUPBiCGStab:  Solving for Uz, Initial residual = 4.8020275e-08, Final residual = 8.9200076e-10, No Iterations 1
DICPCG:  Solving for p, Initial residual = 4.757526e-07, Final residual = 4.1254649e-09, No Iterations 61
DICPCG:  Solving for p, Initial residual = 4.1254603e-09, Final residual = 3.8516181e-11, No Iterations 48
DICPCG:  Solving for p, Initial residual = 3.8516146e-11, Final residual = 9.7212161e-13, No Iterations 62
time step continuity errors : sum local = 1.6639431e-16, global = 2.9060308e-18, cumulative = 3.9972672e-19
DILUPBiCGStab:  Solving for epsilon, Initial residual = 2.8176031e-08, Final residual = 8.8436282e-10, No Iterations 1
DILUPBiCGStab:  Solving for k, Initial residual = 1.7710822e-07, Final residual = 3.8729329e-09, No Iterations 1
ExecutionTime = 3.361 s  ClockTime = 4 s


SIMPLE solution converged in 691 iterations

fieldMinMax fieldMinMax write:
    min(mag(U)) = 0 in cell 0 at location (515.91796 212.55188 0) on processor 0
    max(mag(U)) = 11.729133 in cell 664 at location (495.68588 524.739 276.28521) on processor 1
    min(p) = -0.013433831 in cell 2261 at location (515.91796 -814.64445 276.28521) on processor 7
    max(p) = 4.1299066 in cell 559 at location (515.91796 514.66845 276.28521) on processor 1
    min(k) = 1.971465 in cell 4892 at location (10.116038 -814.64445 276.28521) on processor 7
    max(k) = 2.65959 in cell 3896 at location (-434.98965 -170.1291 30.698357) on processor 2
    min(epsilon) = 0.0054961728 in cell 546 at location (-252.90096 524.739 276.28521) on processor 4
    max(epsilon) = 0.1611704 in cell 1477 at location (333.82927 -814.64445 10.232786) on processor 7
    min(nut) = 1.4828448 in cell 225 at location (-151.74058 514.66845 0) on processor 3
    max(nut) = 196.52031 in cell 701 at location (10.116038 514.66845 286.518) on processor 3

volFieldValue average write:
    weightedVolAverage() of U = (-6.0654357e-10 -9.7944042 -0.01779388)
    weightedVolAverage() of p = 1.4572509

End

Finalising parallel run
/*---------------------------------------------------------------------------*\
  =========                 |
  \\      /  F ield         | OpenFOAM: The Open Source CFD Toolbox
   \\    /   O peration     | Website:  https://openfoam.org
    \\  /    A nd           | Version:  8
     \\/     M anipulation  |
\*---------------------------------------------------------------------------*/
/*   Windows 32 and 64 bit porting by blueCAPE: http://www.bluecape.com.pt   *\
|  Based on Windows porting (2.0.x v4) by Symscape: http://www.symscape.com   |
\*---------------------------------------------------------------------------*/
Build  : 8-53cd1468e263
Exec   : reconstructPar -latestTime
Date   : May 25 2022
Time   : 20:33:32
Host   : "DESKTOP-6ISUCKQ"
PID    : 19136
I/O    : uncollated
Case   : D:/CFDGAN/NeighborhoodGAN/Case_17/0
nProcs : 1
SigFpe : Enabling floating point exception trapping (FOAM_SIGFPE).
fileModificationChecking : Monitoring run-time modified files using timeStampMaster (fileModificationSkew 10)
allowSystemOperations : Allowing user-supplied system call operations

// * * * * * * * * * * * * * * * * * * * * * * * * * * * * * * * * * * * * * //
Create time



Reconstructing fields for mesh region0

Time = 691

Reconstructing FV fields

    Reconstructing volScalarFields

        p
        nut
        k
        epsilon

    Reconstructing volVectorFields

        U

    Reconstructing surfaceScalarFields

        phi

Reconstructing point fields

No point fields

No lagrangian fields


End

