/*---------------------------------------------------------------------------*\
| =========                 |                                                 |
| \\      /  F ield         | OpenFOAM: The Open Source CFD Toolbox           |
|  \\    /   O peration     | Version:  5.x                                   |
|   \\  /    A nd           | Web:      www.OpenFOAM.org                      |
|    \\/     M anipulation  |                                                 |
\*---------------------------------------------------------------------------*/
/*   Windows 32 and 64 bit porting by blueCAPE: http://www.bluecape.com.pt   *\
|  Based on Windows porting (2.0.x v4) by Symscape: http://www.symscape.com   |
\*---------------------------------------------------------------------------*/
Build  : 5.x-963176928289
Exec   : decomposePar -force
Date   : Mar 08 2022
Time   : 08:26:19
Host   : "AR-128-THREAD"
PID    : 19396
I/O    : uncollated
Case   : E:/CFDGAN/Gen_Box/6_Case_Type_Scatter_Height_20_Dist_20_dir_30/30
nProcs : 1
SigFpe : Enabling floating point exception trapping (FOAM_SIGFPE).
fileModificationChecking : Monitoring run-time modified files using timeStampMaster (fileModificationSkew 10)
allowSystemOperations : Allowing user-supplied system call operations

// * * * * * * * * * * * * * * * * * * * * * * * * * * * * * * * * * * * * * //
Create time



Decomposing mesh region0

Create mesh

Calculating distribution of cells
Selecting decompositionMethod scotch

Finished decomposition in 20.458 s

Calculating original mesh data

Distributing cells to processors

Distributing faces to processors

Distributing points to processors

Constructing processor meshes

Processor 0
    Number of cells = 127168
    Number of faces shared with processor 1 = 1313
    Number of faces shared with processor 2 = 333
    Number of faces shared with processor 7 = 1021
    Number of faces shared with processor 11 = 626
    Number of faces shared with processor 12 = 648
    Number of processor patches = 5
    Number of processor faces = 3941
    Number of boundary faces = 55564

Processor 1
    Number of cells = 127997
    Number of faces shared with processor 0 = 1313
    Number of faces shared with processor 2 = 1173
    Number of faces shared with processor 3 = 418
    Number of faces shared with processor 8 = 167
    Number of faces shared with processor 9 = 427
    Number of faces shared with processor 10 = 559
    Number of faces shared with processor 11 = 593
    Number of processor patches = 7
    Number of processor faces = 4650
    Number of boundary faces = 56913

Processor 2
    Number of cells = 127270
    Number of faces shared with processor 0 = 333
    Number of faces shared with processor 1 = 1173
    Number of faces shared with processor 3 = 1429
    Number of faces shared with processor 6 = 511
    Number of faces shared with processor 7 = 285
    Number of processor patches = 5
    Number of processor faces = 3731
    Number of boundary faces = 55989

Processor 3
    Number of cells = 126592
    Number of faces shared with processor 1 = 418
    Number of faces shared with processor 2 = 1429
    Number of faces shared with processor 6 = 340
    Number of faces shared with processor 8 = 1606
    Number of processor patches = 4
    Number of processor faces = 3793
    Number of boundary faces = 55535

Processor 4
    Number of cells = 125683
    Number of faces shared with processor 5 = 1052
    Number of faces shared with processor 6 = 468
    Number of faces shared with processor 7 = 585
    Number of processor patches = 3
    Number of processor faces = 2105
    Number of boundary faces = 55432

Processor 5
    Number of cells = 127747
    Number of faces shared with processor 4 = 1052
    Number of faces shared with processor 6 = 805
    Number of processor patches = 2
    Number of processor faces = 1857
    Number of boundary faces = 56404

Processor 6
    Number of cells = 126264
    Number of faces shared with processor 2 = 511
    Number of faces shared with processor 3 = 340
    Number of faces shared with processor 4 = 468
    Number of faces shared with processor 5 = 805
    Number of faces shared with processor 7 = 996
    Number of processor patches = 5
    Number of processor faces = 3120
    Number of boundary faces = 55070

Processor 7
    Number of cells = 127022
    Number of faces shared with processor 0 = 1021
    Number of faces shared with processor 2 = 285
    Number of faces shared with processor 4 = 585
    Number of faces shared with processor 6 = 996
    Number of faces shared with processor 12 = 166
    Number of processor patches = 5
    Number of processor faces = 3053
    Number of boundary faces = 55746

Processor 8
    Number of cells = 125600
    Number of faces shared with processor 1 = 167
    Number of faces shared with processor 3 = 1606
    Number of faces shared with processor 9 = 1621
    Number of processor patches = 3
    Number of processor faces = 3394
    Number of boundary faces = 55688

Processor 9
    Number of cells = 125506
    Number of faces shared with processor 1 = 427
    Number of faces shared with processor 8 = 1621
    Number of faces shared with processor 10 = 1699
    Number of faces shared with processor 15 = 340
    Number of processor patches = 4
    Number of processor faces = 4087
    Number of boundary faces = 55093

Processor 10
    Number of cells = 126139
    Number of faces shared with processor 1 = 559
    Number of faces shared with processor 9 = 1699
    Number of faces shared with processor 11 = 1276
    Number of faces shared with processor 12 = 500
    Number of faces shared with processor 15 = 246
    Number of processor patches = 5
    Number of processor faces = 4280
    Number of boundary faces = 55377

Processor 11
    Number of cells = 127031
    Number of faces shared with processor 0 = 626
    Number of faces shared with processor 1 = 593
    Number of faces shared with processor 10 = 1276
    Number of faces shared with processor 12 = 1398
    Number of processor patches = 4
    Number of processor faces = 3893
    Number of boundary faces = 55394

Processor 12
    Number of cells = 127245
    Number of faces shared with processor 0 = 648
    Number of faces shared with processor 7 = 166
    Number of faces shared with processor 10 = 500
    Number of faces shared with processor 11 = 1398
    Number of faces shared with processor 13 = 1077
    Number of faces shared with processor 15 = 751
    Number of processor patches = 6
    Number of processor faces = 4540
    Number of boundary faces = 55552

Processor 13
    Number of cells = 127845
    Number of faces shared with processor 12 = 1077
    Number of faces shared with processor 14 = 1164
    Number of faces shared with processor 15 = 295
    Number of processor patches = 3
    Number of processor faces = 2536
    Number of boundary faces = 56723

Processor 14
    Number of cells = 127480
    Number of faces shared with processor 13 = 1164
    Number of faces shared with processor 15 = 1067
    Number of processor patches = 2
    Number of processor faces = 2231
    Number of boundary faces = 56329

Processor 15
    Number of cells = 125789
    Number of faces shared with processor 9 = 340
    Number of faces shared with processor 10 = 246
    Number of faces shared with processor 12 = 751
    Number of faces shared with processor 13 = 295
    Number of faces shared with processor 14 = 1067
    Number of processor patches = 5
    Number of processor faces = 2699
    Number of boundary faces = 55048

Number of processor faces = 26955
Max number of cells = 127997 (0.96500751% above average 126773.62)
Max number of processor patches = 7 (64.705882% above average 4.25)
Max number of faces between processors = 4650 (38.007791% above average 3369.375)

Time = 0

Processor 0: field transfer
Processor 1: field transfer
Processor 2: field transfer
Processor 3: field transfer
Processor 4: field transfer
Processor 5: field transfer
Processor 6: field transfer
Processor 7: field transfer
Processor 8: field transfer
Processor 9: field transfer
Processor 10: field transfer
Processor 11: field transfer
Processor 12: field transfer
Processor 13: field transfer
Processor 14: field transfer
Processor 15: field transfer

End

/*---------------------------------------------------------------------------*\
| =========                 |                                                 |
| \\      /  F ield         | OpenFOAM: The Open Source CFD Toolbox           |
|  \\    /   O peration     | Version:  5.x                                   |
|   \\  /    A nd           | Web:      www.OpenFOAM.org                      |
|    \\/     M anipulation  |                                                 |
\*---------------------------------------------------------------------------*/
/*   Windows 32 and 64 bit porting by blueCAPE: http://www.bluecape.com.pt   *\
|  Based on Windows porting (2.0.x v4) by Symscape: http://www.symscape.com   |
\*---------------------------------------------------------------------------*/
Build  : 5.x-963176928289
Exec   : simpleFoam -parallel
Date   : Mar 08 2022
Time   : 08:27:05
Host   : "AR-128-THREAD"
PID    : 32944
I/O    : uncollated
Case   : E:/CFDGAN/Gen_Box/6_Case_Type_Scatter_Height_20_Dist_20_dir_30/30
nProcs : 16
Slaves : 
15
(
"AR-128-THREAD.30856"
"AR-128-THREAD.5828"
"AR-128-THREAD.26108"
"AR-128-THREAD.37168"
"AR-128-THREAD.37840"
"AR-128-THREAD.34620"
"AR-128-THREAD.36844"
"AR-128-THREAD.21240"
"AR-128-THREAD.13716"
"AR-128-THREAD.33256"
"AR-128-THREAD.21932"
"AR-128-THREAD.34596"
"AR-128-THREAD.32812"
"AR-128-THREAD.36648"
"AR-128-THREAD.17260"
)

Pstream initialized with:
    floatTransfer      : 0
    nProcsSimpleSum    : 0
    commsType          : nonBlocking
    polling iterations : 0
SigFpe : Enabling floating point exception trapping (FOAM_SIGFPE).
fileModificationChecking : Monitoring run-time modified files using timeStampMaster (fileModificationSkew 10)
allowSystemOperations : Allowing user-supplied system call operations

// * * * * * * * * * * * * * * * * * * * * * * * * * * * * * * * * * * * * * //
Create time

Create mesh for time = 0


SIMPLE: convergence criteria
    field p	 tolerance 1e-005
    field U	 tolerance 0.0001

Reading field p

Reading field U

Reading/calculating face flux field phi

Selecting incompressible transport model Newtonian
Selecting turbulence model type RAS
Selecting RAS turbulence model RNGkEpsilon
RAS
{
    RASModel        RNGkEpsilon;
    turbulence      on;
    printCoeffs     on;
    Cmu             0.0845;
    C1              1.42;
    C2              1.68;
    C3              0;
    sigmak          0.71942;
    sigmaEps        0.71942;
    eta0            4.38;
    beta            0.012;
}

No MRF models present

No finite volume options present


Starting time loop

Time = 1

DILUPBiCGStab:  Solving for Ux, Initial residual = 1, Final residual = 4.9891796e-008, No Iterations 1
DILUPBiCGStab:  Solving for Uy, Initial residual = 1, Final residual = 4.989508e-008, No Iterations 1
DILUPBiCGStab:  Solving for Uz, Initial residual = 1, Final residual = 9.2700422e-005, No Iterations 1
DICPCG:  Solving for p, Initial residual = 1, Final residual = 0.0099429556, No Iterations 123
time step continuity errors : sum local = 6.0474193e-005, global = -8.4378928e-007, cumulative = -8.4378928e-007
DILUPBiCGStab:  Solving for epsilon, Initial residual = 0.13080006, Final residual = 2.2071182e-005, No Iterations 1
DILUPBiCGStab:  Solving for k, Initial residual = 1, Final residual = 0.00019977006, No Iterations 1
ExecutionTime = 20.679 s  ClockTime = 21 s

Time = 2

DILUPBiCGStab:  Solving for Ux, Initial residual = 0.019845459, Final residual = 0.00024476379, No Iterations 1
DILUPBiCGStab:  Solving for Uy, Initial residual = 0.019575206, Final residual = 0.00023279167, No Iterations 1
DILUPBiCGStab:  Solving for Uz, Initial residual = 0.20481729, Final residual = 0.0040337756, No Iterations 1
DICPCG:  Solving for p, Initial residual = 0.99825987, Final residual = 0.0099383604, No Iterations 554
time step continuity errors : sum local = 4.9551349e-005, global = 7.1939439e-007, cumulative = -1.2439489e-007
DILUPBiCGStab:  Solving for epsilon, Initial residual = 0.12260285, Final residual = 1.5655889e-005, No Iterations 1
DILUPBiCGStab:  Solving for k, Initial residual = 0.68566456, Final residual = 0.00013081296, No Iterations 1
ExecutionTime = 85.212 s  ClockTime = 86 s

Time = 3

DILUPBiCGStab:  Solving for Ux, Initial residual = 0.066116683, Final residual = 0.0021608977, No Iterations 1
DILUPBiCGStab:  Solving for Uy, Initial residual = 0.065971456, Final residual = 0.0021649278, No Iterations 1
DILUPBiCGStab:  Solving for Uz, Initial residual = 0.24530765, Final residual = 0.0050962361, No Iterations 1
DICPCG:  Solving for p, Initial residual = 0.079529245, Final residual = 0.00076862227, No Iterations 101
time step continuity errors : sum local = 0.00010402674, global = 1.015368e-006, cumulative = 8.9097315e-007
DILUPBiCGStab:  Solving for epsilon, Initial residual = 0.13410016, Final residual = 2.0833271e-005, No Iterations 1
DILUPBiCGStab:  Solving for k, Initial residual = 0.32306771, Final residual = 6.8319267e-005, No Iterations 1
ExecutionTime = 100.367 s  ClockTime = 101 s

Time = 4

DILUPBiCGStab:  Solving for Ux, Initial residual = 0.24019519, Final residual = 0.0083110094, No Iterations 1
DILUPBiCGStab:  Solving for Uy, Initial residual = 0.24499377, Final residual = 0.0084999793, No Iterations 1
DILUPBiCGStab:  Solving for Uz, Initial residual = 0.19165781, Final residual = 0.0042971145, No Iterations 1
DICPCG:  Solving for p, Initial residual = 0.058391583, Final residual = 0.00056151407, No Iterations 132
time step continuity errors : sum local = 0.00010595895, global = -9.6570463e-007, cumulative = -7.4731479e-008
DILUPBiCGStab:  Solving for epsilon, Initial residual = 0.13696628, Final residual = 2.1161799e-005, No Iterations 1
DILUPBiCGStab:  Solving for k, Initial residual = 0.18723772, Final residual = 4.0746302e-005, No Iterations 1
ExecutionTime = 119.094 s  ClockTime = 120 s

Time = 5

DILUPBiCGStab:  Solving for Ux, Initial residual = 0.19975329, Final residual = 0.0071312741, No Iterations 1
DILUPBiCGStab:  Solving for Uy, Initial residual = 0.2008284, Final residual = 0.0071802391, No Iterations 1
DILUPBiCGStab:  Solving for Uz, Initial residual = 0.12290619, Final residual = 0.003900163, No Iterations 1
DICPCG:  Solving for p, Initial residual = 0.061364354, Final residual = 0.00054551183, No Iterations 141
time step continuity errors : sum local = 9.1301417e-005, global = 4.9609514e-007, cumulative = 4.2136366e-007
DILUPBiCGStab:  Solving for epsilon, Initial residual = 0.14022398, Final residual = 2.1816193e-005, No Iterations 1
DILUPBiCGStab:  Solving for k, Initial residual = 0.12501143, Final residual = 2.7606458e-005, No Iterations 1
ExecutionTime = 138.806 s  ClockTime = 139 s

Time = 6

DILUPBiCGStab:  Solving for Ux, Initial residual = 0.094266409, Final residual = 0.0033483719, No Iterations 1
DILUPBiCGStab:  Solving for Uy, Initial residual = 0.094138814, Final residual = 0.003341857, No Iterations 1
DILUPBiCGStab:  Solving for Uz, Initial residual = 0.15340423, Final residual = 0.0040725447, No Iterations 1
DICPCG:  Solving for p, Initial residual = 0.08788676, Final residual = 0.00084362885, No Iterations 143
time step continuity errors : sum local = 7.4642611e-005, global = 3.5229926e-007, cumulative = 7.7366292e-007
DILUPBiCGStab:  Solving for epsilon, Initial residual = 0.14389605, Final residual = 2.2486897e-005, No Iterations 1
DILUPBiCGStab:  Solving for k, Initial residual = 0.09002743, Final residual = 1.986264e-005, No Iterations 1
ExecutionTime = 160.152 s  ClockTime = 161 s

Time = 7

DILUPBiCGStab:  Solving for Ux, Initial residual = 0.018464485, Final residual = 0.00057244378, No Iterations 1
DILUPBiCGStab:  Solving for Uy, Initial residual = 0.017847508, Final residual = 0.00054843293, No Iterations 1
DILUPBiCGStab:  Solving for Uz, Initial residual = 0.20562555, Final residual = 0.0053777383, No Iterations 1
DICPCG:  Solving for p, Initial residual = 0.37884357, Final residual = 0.0036698251, No Iterations 137
time step continuity errors : sum local = 8.0402469e-005, global = 6.1473539e-007, cumulative = 1.3883983e-006
DILUPBiCGStab:  Solving for epsilon, Initial residual = 0.1480753, Final residual = 2.3214095e-005, No Iterations 1
DILUPBiCGStab:  Solving for k, Initial residual = 0.06836562, Final residual = 1.5286397e-005, No Iterations 1
ExecutionTime = 180.423 s  ClockTime = 181 s

Time = 8

DILUPBiCGStab:  Solving for Ux, Initial residual = 0.095752053, Final residual = 0.0033549365, No Iterations 1
DILUPBiCGStab:  Solving for Uy, Initial residual = 0.09691707, Final residual = 0.0033904942, No Iterations 1
DILUPBiCGStab:  Solving for Uz, Initial residual = 0.17527331, Final residual = 0.0048240587, No Iterations 1
DICPCG:  Solving for p, Initial residual = 0.11382521, Final residual = 0.0011106519, No Iterations 124
time step continuity errors : sum local = 8.357396e-005, global = 2.3003646e-006, cumulative = 3.6887629e-006
DILUPBiCGStab:  Solving for epsilon, Initial residual = 0.15283058, Final residual = 2.4043399e-005, No Iterations 1
DILUPBiCGStab:  Solving for k, Initial residual = 0.053765823, Final residual = 1.2648619e-005, No Iterations 1
ExecutionTime = 197.332 s  ClockTime = 198 s

Time = 9

DILUPBiCGStab:  Solving for Ux, Initial residual = 0.11771018, Final residual = 0.0042676567, No Iterations 1
DILUPBiCGStab:  Solving for Uy, Initial residual = 0.12136126, Final residual = 0.0043829957, No Iterations 1
DILUPBiCGStab:  Solving for Uz, Initial residual = 0.10894621, Final residual = 0.003535768, No Iterations 1
DICPCG:  Solving for p, Initial residual = 0.085241781, Final residual = 0.00080078373, No Iterations 132
time step continuity errors : sum local = 6.8631515e-005, global = -5.2740408e-007, cumulative = 3.1613589e-006
DILUPBiCGStab:  Solving for epsilon, Initial residual = 0.15821779, Final residual = 2.4992786e-005, No Iterations 1
DILUPBiCGStab:  Solving for k, Initial residual = 0.043272944, Final residual = 1.0860018e-005, No Iterations 1
ExecutionTime = 216.209 s  ClockTime = 217 s

Time = 10

DILUPBiCGStab:  Solving for Ux, Initial residual = 0.081076598, Final residual = 0.0029822268, No Iterations 1
DILUPBiCGStab:  Solving for Uy, Initial residual = 0.08375911, Final residual = 0.003054985, No Iterations 1
DILUPBiCGStab:  Solving for Uz, Initial residual = 0.078413603, Final residual = 0.0027870298, No Iterations 1
DICPCG:  Solving for p, Initial residual = 0.078398942, Final residual = 0.00073114126, No Iterations 140
time step continuity errors : sum local = 4.3977369e-005, global = -1.2532471e-007, cumulative = 3.0360341e-006
DILUPBiCGStab:  Solving for epsilon, Initial residual = 0.16444596, Final residual = 2.6091033e-005, No Iterations 1
DILUPBiCGStab:  Solving for k, Initial residual = 0.035448204, Final residual = 9.726413e-006, No Iterations 1
ExecutionTime = 235.129 s  ClockTime = 236 s

Time = 11

DILUPBiCGStab:  Solving for Ux, Initial residual = 0.0232245, Final residual = 0.00086100833, No Iterations 1
DILUPBiCGStab:  Solving for Uy, Initial residual = 0.023065733, Final residual = 0.00082955749, No Iterations 1
DILUPBiCGStab:  Solving for Uz, Initial residual = 0.10287378, Final residual = 0.0030517837, No Iterations 1
DICPCG:  Solving for p, Initial residual = 0.15827102, Final residual = 0.00149882, No Iterations 142
time step continuity errors : sum local = 2.9526677e-005, global = -6.3693366e-008, cumulative = 2.9723408e-006
DILUPBiCGStab:  Solving for epsilon, Initial residual = 0.17179119, Final residual = 2.7375935e-005, No Iterations 1
DILUPBiCGStab:  Solving for k, Initial residual = 0.02942713, Final residual = 8.9133028e-006, No Iterations 1
ExecutionTime = 254.893 s  ClockTime = 255 s

Time = 12

DILUPBiCGStab:  Solving for Ux, Initial residual = 0.0322974, Final residual = 0.0011616063, No Iterations 1
DILUPBiCGStab:  Solving for Uy, Initial residual = 0.033356055, Final residual = 0.001234127, No Iterations 1
DILUPBiCGStab:  Solving for Uz, Initial residual = 0.1063904, Final residual = 0.0030289133, No Iterations 1
DICPCG:  Solving for p, Initial residual = 0.13587471, Final residual = 0.0012204744, No Iterations 134
time step continuity errors : sum local = 3.0933992e-005, global = -2.2883805e-007, cumulative = 2.7435027e-006
DILUPBiCGStab:  Solving for epsilon, Initial residual = 0.180588, Final residual = 2.89087e-005, No Iterations 1
DILUPBiCGStab:  Solving for k, Initial residual = 0.02469621, Final residual = 8.2350752e-006, No Iterations 1
ExecutionTime = 275.05 s  ClockTime = 275 s

Time = 13

DILUPBiCGStab:  Solving for Ux, Initial residual = 0.053944801, Final residual = 0.0019804251, No Iterations 1
DILUPBiCGStab:  Solving for Uy, Initial residual = 0.054761866, Final residual = 0.0020363148, No Iterations 1
DILUPBiCGStab:  Solving for Uz, Initial residual = 0.076722964, Final residual = 0.0022330096, No Iterations 1
DICPCG:  Solving for p, Initial residual = 0.085994136, Final residual = 0.00085292836, No Iterations 119
time step continuity errors : sum local = 3.4060786e-005, global = 7.3648112e-008, cumulative = 2.8171508e-006
DILUPBiCGStab:  Solving for epsilon, Initial residual = 0.19131436, Final residual = 3.0785288e-005, No Iterations 1
DILUPBiCGStab:  Solving for k, Initial residual = 0.020903736, Final residual = 7.6550174e-006, No Iterations 1
ExecutionTime = 292.808 s  ClockTime = 293 s

Time = 14

DILUPBiCGStab:  Solving for Ux, Initial residual = 0.046768846, Final residual = 0.001729367, No Iterations 1
DILUPBiCGStab:  Solving for Uy, Initial residual = 0.04688521, Final residual = 0.001750502, No Iterations 1
DILUPBiCGStab:  Solving for Uz, Initial residual = 0.048496584, Final residual = 0.0014187195, No Iterations 1
DICPCG:  Solving for p, Initial residual = 0.074604944, Final residual = 0.00072681069, No Iterations 137
time step continuity errors : sum local = 2.5638737e-005, global = 3.4831563e-007, cumulative = 3.1654665e-006
DILUPBiCGStab:  Solving for epsilon, Initial residual = 0.20471671, Final residual = 3.3123206e-005, No Iterations 1
DILUPBiCGStab:  Solving for k, Initial residual = 0.017892162, Final residual = 7.1295556e-006, No Iterations 1
ExecutionTime = 311.906 s  ClockTime = 312 s

Time = 15

DILUPBiCGStab:  Solving for Ux, Initial residual = 0.02379854, Final residual = 0.00087898193, No Iterations 1
DILUPBiCGStab:  Solving for Uy, Initial residual = 0.023465821, Final residual = 0.00087551723, No Iterations 1
DILUPBiCGStab:  Solving for Uz, Initial residual = 0.042585816, Final residual = 0.0011929729, No Iterations 1
DICPCG:  Solving for p, Initial residual = 0.084827654, Final residual = 0.00079680858, No Iterations 142
time step continuity errors : sum local = 1.5132899e-005, global = -5.0576511e-008, cumulative = 3.11489e-006
DILUPBiCGStab:  Solving for epsilon, Initial residual = 0.2220312, Final residual = 3.6127602e-005, No Iterations 1
DILUPBiCGStab:  Solving for k, Initial residual = 0.015465199, Final residual = 6.7058445e-006, No Iterations 1
ExecutionTime = 332.119 s  ClockTime = 333 s

Time = 16

DILUPBiCGStab:  Solving for Ux, Initial residual = 0.007158116, Final residual = 0.0002431017, No Iterations 1
DILUPBiCGStab:  Solving for Uy, Initial residual = 0.0067603401, Final residual = 0.00021550372, No Iterations 1
DILUPBiCGStab:  Solving for Uz, Initial residual = 0.052684343, Final residual = 0.0014298233, No Iterations 1
DICPCG:  Solving for p, Initial residual = 0.23878606, Final residual = 0.00225897, No Iterations 139
time step continuity errors : sum local = 1.4429786e-005, global = 2.8505258e-007, cumulative = 3.3999425e-006
DILUPBiCGStab:  Solving for epsilon, Initial residual = 0.24527739, Final residual = 4.0131115e-005, No Iterations 1
DILUPBiCGStab:  Solving for k, Initial residual = 0.013483128, Final residual = 6.3882926e-006, No Iterations 1
ExecutionTime = 351.095 s  ClockTime = 352 s

Time = 17

DILUPBiCGStab:  Solving for Ux, Initial residual = 0.022273984, Final residual = 0.00082636724, No Iterations 1
DILUPBiCGStab:  Solving for Uy, Initial residual = 0.022294637, Final residual = 0.00081715718, No Iterations 1
DILUPBiCGStab:  Solving for Uz, Initial residual = 0.049293117, Final residual = 0.0013956943, No Iterations 1
DICPCG:  Solving for p, Initial residual = 0.094991724, Final residual = 0.00093052901, No Iterations 127
time step continuity errors : sum local = 1.6236123e-005, global = 4.6871385e-007, cumulative = 3.8686564e-006
DILUPBiCGStab:  Solving for epsilon, Initial residual = 0.27810976, Final residual = 4.5742721e-005, No Iterations 1
DILUPBiCGStab:  Solving for k, Initial residual = 0.011823151, Final residual = 6.1687658e-006, No Iterations 1
ExecutionTime = 370.189 s  ClockTime = 371 s

Time = 18

DILUPBiCGStab:  Solving for Ux, Initial residual = 0.026069171, Final residual = 0.00097520105, No Iterations 1
DILUPBiCGStab:  Solving for Uy, Initial residual = 0.026090871, Final residual = 0.00096327933, No Iterations 1
DILUPBiCGStab:  Solving for Uz, Initial residual = 0.037515844, Final residual = 0.0011701148, No Iterations 1
DICPCG:  Solving for p, Initial residual = 0.075707788, Final residual = 0.00075586907, No Iterations 134
time step continuity errors : sum local = 1.4654396e-005, global = -2.2036321e-007, cumulative = 3.6482932e-006
DILUPBiCGStab:  Solving for epsilon, Initial residual = 0.32791156, Final residual = 5.4201644e-005, No Iterations 1
DILUPBiCGStab:  Solving for k, Initial residual = 0.0104228, Final residual = 5.9980068e-006, No Iterations 1
ExecutionTime = 389.459 s  ClockTime = 390 s

Time = 19

DILUPBiCGStab:  Solving for Ux, Initial residual = 0.018682369, Final residual = 0.00069884273, No Iterations 1
DILUPBiCGStab:  Solving for Uy, Initial residual = 0.018469877, Final residual = 0.0006759339, No Iterations 1
DILUPBiCGStab:  Solving for Uz, Initial residual = 0.029616499, Final residual = 0.0010921082, No Iterations 1
DICPCG:  Solving for p, Initial residual = 0.073603896, Final residual = 0.00068163985, No Iterations 140
time step continuity errors : sum local = 9.5509771e-006, global = -1.5347275e-007, cumulative = 3.4948204e-006
DILUPBiCGStab:  Solving for epsilon, Initial residual = 0.41229415, Final residual = 6.8486796e-005, No Iterations 1
DILUPBiCGStab:  Solving for k, Initial residual = 0.0092294605, Final residual = 5.8326846e-006, No Iterations 1
ExecutionTime = 409.092 s  ClockTime = 410 s

Time = 20

DILUPBiCGStab:  Solving for Ux, Initial residual = 0.0068933929, Final residual = 0.00025087597, No Iterations 1
DILUPBiCGStab:  Solving for Uy, Initial residual = 0.0062594245, Final residual = 0.0002127432, No Iterations 1
DILUPBiCGStab:  Solving for Uz, Initial residual = 0.030653355, Final residual = 0.0011243331, No Iterations 1
DICPCG:  Solving for p, Initial residual = 0.14181775, Final residual = 0.0013043614, No Iterations 141
time step continuity errors : sum local = 7.3853708e-006, global = -5.307027e-008, cumulative = 3.4417502e-006
DILUPBiCGStab:  Solving for epsilon, Initial residual = 0.58577247, Final residual = 9.7810771e-005, No Iterations 1
DILUPBiCGStab:  Solving for k, Initial residual = 0.008205462, Final residual = 5.6518919e-006, No Iterations 1
ExecutionTime = 427.546 s  ClockTime = 428 s

Time = 21

DILUPBiCGStab:  Solving for Ux, Initial residual = 0.008669806, Final residual = 0.00033038698, No Iterations 1
DILUPBiCGStab:  Solving for Uy, Initial residual = 0.0085084302, Final residual = 0.00033722554, No Iterations 1
DILUPBiCGStab:  Solving for Uz, Initial residual = 0.030527144, Final residual = 0.0010976236, No Iterations 1
DICPCG:  Solving for p, Initial residual = 0.12389753, Final residual = 0.0012256157, No Iterations 137
time step continuity errors : sum local = 8.5414635e-006, global = -3.3983459e-007, cumulative = 3.1019156e-006
DILUPBiCGStab:  Solving for epsilon, Initial residual = 0.70860709, Final residual = 0.00011900501, No Iterations 1
DILUPBiCGStab:  Solving for k, Initial residual = 0.0073479859, Final residual = 5.4634363e-006, No Iterations 1
ExecutionTime = 447.847 s  ClockTime = 448 s

Time = 22

DILUPBiCGStab:  Solving for Ux, Initial residual = 0.012686212, Final residual = 0.00048701499, No Iterations 1
DILUPBiCGStab:  Solving for Uy, Initial residual = 0.012626486, Final residual = 0.00049462419, No Iterations 1
DILUPBiCGStab:  Solving for Uz, Initial residual = 0.025849078, Final residual = 0.00098051776, No Iterations 1
DICPCG:  Solving for p, Initial residual = 0.082877648, Final residual = 0.00081357485, No Iterations 116
time step continuity errors : sum local = 8.0576756e-006, global = 5.2696274e-007, cumulative = 3.6288783e-006
DILUPBiCGStab:  Solving for epsilon, Initial residual = 0.73812201, Final residual = 0.00012473988, No Iterations 1
DILUPBiCGStab:  Solving for k, Initial residual = 0.0066165709, Final residual = 5.2720673e-006, No Iterations 1
ExecutionTime = 464.979 s  ClockTime = 465 s

Time = 23

DILUPBiCGStab:  Solving for Ux, Initial residual = 0.011500356, Final residual = 0.00044291641, No Iterations 1
DILUPBiCGStab:  Solving for Uy, Initial residual = 0.011346203, Final residual = 0.00044329404, No Iterations 1
DILUPBiCGStab:  Solving for Uz, Initial residual = 0.021243673, Final residual = 0.00086069267, No Iterations 1
DICPCG:  Solving for p, Initial residual = 0.073324837, Final residual = 0.00065075633, No Iterations 138
time step continuity errors : sum local = 5.7982979e-006, global = 3.2456294e-008, cumulative = 3.6613346e-006
DILUPBiCGStab:  Solving for epsilon, Initial residual = 0.49420559, Final residual = 8.4057909e-005, No Iterations 1
DILUPBiCGStab:  Solving for k, Initial residual = 0.005997356, Final residual = 5.0856639e-006, No Iterations 1
ExecutionTime = 483.909 s  ClockTime = 484 s

Time = 24

DILUPBiCGStab:  Solving for Ux, Initial residual = 0.0070966021, Final residual = 0.0002780953, No Iterations 1
DILUPBiCGStab:  Solving for Uy, Initial residual = 0.0068047183, Final residual = 0.00026963192, No Iterations 1
DILUPBiCGStab:  Solving for Uz, Initial residual = 0.0203846, Final residual = 0.00078398169, No Iterations 1
DICPCG:  Solving for p, Initial residual = 0.088273182, Final residual = 0.00083141736, No Iterations 141
time step continuity errors : sum local = 4.5979255e-006, global = 1.0372209e-007, cumulative = 3.7650567e-006
DILUPBiCGStab:  Solving for epsilon, Initial residual = 0.30552017, Final residual = 5.2278821e-005, No Iterations 1
DILUPBiCGStab:  Solving for k, Initial residual = 0.0054586082, Final residual = 4.9099104e-006, No Iterations 1
ExecutionTime = 504.127 s  ClockTime = 505 s

Time = 25

DILUPBiCGStab:  Solving for Ux, Initial residual = 0.004294591, Final residual = 0.00016879017, No Iterations 1
DILUPBiCGStab:  Solving for Uy, Initial residual = 0.0037542331, Final residual = 0.00014353127, No Iterations 1
DILUPBiCGStab:  Solving for Uz, Initial residual = 0.020988437, Final residual = 0.0007580708, No Iterations 1
DICPCG:  Solving for p, Initial residual = 0.14787515, Final residual = 0.0014071511, No Iterations 139
time step continuity errors : sum local = 4.6394303e-006, global = 1.8265425e-007, cumulative = 3.9477109e-006
DILUPBiCGStab:  Solving for epsilon, Initial residual = 0.20812969, Final residual = 3.5810987e-005, No Iterations 1
DILUPBiCGStab:  Solving for k, Initial residual = 0.0049873816, Final residual = 4.7537764e-006, No Iterations 1
ExecutionTime = 523.465 s  ClockTime = 524 s

Time = 26

DILUPBiCGStab:  Solving for Ux, Initial residual = 0.006486808, Final residual = 0.00024657521, No Iterations 1
DILUPBiCGStab:  Solving for Uy, Initial residual = 0.0062118417, Final residual = 0.00023464604, No Iterations 1
DILUPBiCGStab:  Solving for Uz, Initial residual = 0.019826917, Final residual = 0.00072721584, No Iterations 1
DICPCG:  Solving for p, Initial residual = 0.087557989, Final residual = 0.00086623691, No Iterations 99
time step continuity errors : sum local = 4.8228954e-006, global = -7.3993382e-008, cumulative = 3.8737176e-006
DILUPBiCGStab:  Solving for epsilon, Initial residual = 0.14981009, Final residual = 2.5914302e-005, No Iterations 1
DILUPBiCGStab:  Solving for k, Initial residual = 0.004568947, Final residual = 4.6274949e-006, No Iterations 1
ExecutionTime = 538.551 s  ClockTime = 539 s

Time = 27

DILUPBiCGStab:  Solving for Ux, Initial residual = 0.0070872881, Final residual = 0.00026832982, No Iterations 1
DILUPBiCGStab:  Solving for Uy, Initial residual = 0.0067994962, Final residual = 0.00025529001, No Iterations 1
DILUPBiCGStab:  Solving for Uz, Initial residual = 0.017509932, Final residual = 0.00070451618, No Iterations 1
DICPCG:  Solving for p, Initial residual = 0.071718848, Final residual = 0.00065215631, No Iterations 132
time step continuity errors : sum local = 3.8758803e-006, global = -4.0313888e-008, cumulative = 3.8334037e-006
DILUPBiCGStab:  Solving for epsilon, Initial residual = 0.11168582, Final residual = 1.9427417e-005, No Iterations 1
DILUPBiCGStab:  Solving for k, Initial residual = 0.0042053834, Final residual = 4.5348764e-006, No Iterations 1
ExecutionTime = 557.183 s  ClockTime = 558 s

Time = 28

DILUPBiCGStab:  Solving for Ux, Initial residual = 0.0057632984, Final residual = 0.00021950366, No Iterations 1
DILUPBiCGStab:  Solving for Uy, Initial residual = 0.00536652, Final residual = 0.0001993215, No Iterations 1
DILUPBiCGStab:  Solving for Uz, Initial residual = 0.015597936, Final residual = 0.00070086393, No Iterations 1
DICPCG:  Solving for p, Initial residual = 0.068557782, Final residual = 0.00063007642, No Iterations 137
time step continuity errors : sum local = 3.0423942e-006, global = -3.1444462e-008, cumulative = 3.8019592e-006
DILUPBiCGStab:  Solving for epsilon, Initial residual = 0.085399823, Final residual = 1.4950964e-005, No Iterations 1
DILUPBiCGStab:  Solving for k, Initial residual = 0.00389158, Final residual = 4.4799744e-006, No Iterations 1
ExecutionTime = 577.875 s  ClockTime = 578 s

Time = 29

DILUPBiCGStab:  Solving for Ux, Initial residual = 0.0040737151, Final residual = 0.00016667468, No Iterations 1
DILUPBiCGStab:  Solving for Uy, Initial residual = 0.0034570301, Final residual = 0.00013250874, No Iterations 1
DILUPBiCGStab:  Solving for Uz, Initial residual = 0.014954373, Final residual = 0.00071314504, No Iterations 1
DICPCG:  Solving for p, Initial residual = 0.092100749, Final residual = 0.00088629886, No Iterations 137
time step continuity errors : sum local = 2.7529568e-006, global = -8.8868961e-008, cumulative = 3.7130903e-006
DILUPBiCGStab:  Solving for epsilon, Initial residual = 0.066562972, Final residual = 1.1739798e-005, No Iterations 1
DILUPBiCGStab:  Solving for k, Initial residual = 0.0036166177, Final residual = 4.451179e-006, No Iterations 1
ExecutionTime = 595.763 s  ClockTime = 596 s

Time = 30

DILUPBiCGStab:  Solving for Ux, Initial residual = 0.004371399, Final residual = 0.00018965794, No Iterations 1
DILUPBiCGStab:  Solving for Uy, Initial residual = 0.003979212, Final residual = 0.00016744397, No Iterations 1
DILUPBiCGStab:  Solving for Uz, Initial residual = 0.014385472, Final residual = 0.0006967456, No Iterations 1
DICPCG:  Solving for p, Initial residual = 0.093428712, Final residual = 0.00092047527, No Iterations 130
time step continuity errors : sum local = 2.9173831e-006, global = -1.2855079e-007, cumulative = 3.5845395e-006
DILUPBiCGStab:  Solving for epsilon, Initial residual = 0.052574546, Final residual = 9.3454029e-006, No Iterations 1
DILUPBiCGStab:  Solving for k, Initial residual = 0.0033751241, Final residual = 4.4313125e-006, No Iterations 1
ExecutionTime = 613.915 s  ClockTime = 614 s

Time = 31

DILUPBiCGStab:  Solving for Ux, Initial residual = 0.0049377088, Final residual = 0.00021351974, No Iterations 1
DILUPBiCGStab:  Solving for Uy, Initial residual = 0.0046755157, Final residual = 0.00019575285, No Iterations 1
DILUPBiCGStab:  Solving for Uz, Initial residual = 0.013593105, Final residual = 0.00065460791, No Iterations 1
DICPCG:  Solving for p, Initial residual = 0.075389217, Final residual = 0.00074609857, No Iterations 116
time step continuity errors : sum local = 2.8050831e-006, global = 2.4309782e-007, cumulative = 3.8276373e-006
DILUPBiCGStab:  Solving for epsilon, Initial residual = 0.041918179, Final residual = 7.507667e-006, No Iterations 1
DILUPBiCGStab:  Solving for k, Initial residual = 0.003158328, Final residual = 4.4052097e-006, No Iterations 1
ExecutionTime = 631.816 s  ClockTime = 632 s

Time = 32

DILUPBiCGStab:  Solving for Ux, Initial residual = 0.0047415691, Final residual = 0.00020594109, No Iterations 1
DILUPBiCGStab:  Solving for Uy, Initial residual = 0.0044821509, Final residual = 0.00018699209, No Iterations 1
DILUPBiCGStab:  Solving for Uz, Initial residual = 0.013137922, Final residual = 0.00061598672, No Iterations 1
DICPCG:  Solving for p, Initial residual = 0.069448985, Final residual = 0.00065259961, No Iterations 131
time step continuity errors : sum local = 2.3089531e-006, global = 5.3093678e-008, cumulative = 3.880731e-006
DILUPBiCGStab:  Solving for epsilon, Initial residual = 0.033647459, Final residual = 6.0683716e-006, No Iterations 1
DILUPBiCGStab:  Solving for k, Initial residual = 0.0029617698, Final residual = 4.3723459e-006, No Iterations 1
ExecutionTime = 650.457 s  ClockTime = 651 s

Time = 33

DILUPBiCGStab:  Solving for Ux, Initial residual = 0.0041139897, Final residual = 0.00018165938, No Iterations 1
DILUPBiCGStab:  Solving for Uy, Initial residual = 0.0037584854, Final residual = 0.00015824678, No Iterations 1
DILUPBiCGStab:  Solving for Uz, Initial residual = 0.012985054, Final residual = 0.00058521222, No Iterations 1
DICPCG:  Solving for p, Initial residual = 0.074225786, Final residual = 0.0007199688, No Iterations 133
time step continuity errors : sum local = 2.0358433e-006, global = 7.748932e-008, cumulative = 3.9582203e-006
DILUPBiCGStab:  Solving for epsilon, Initial residual = 0.027141576, Final residual = 4.9296897e-006, No Iterations 1
DILUPBiCGStab:  Solving for k, Initial residual = 0.002787513, Final residual = 4.3395949e-006, No Iterations 1
ExecutionTime = 669.939 s  ClockTime = 670 s

Time = 34

DILUPBiCGStab:  Solving for Ux, Initial residual = 0.003830337, Final residual = 0.00016823764, No Iterations 1
DILUPBiCGStab:  Solving for Uy, Initial residual = 0.0033440141, Final residual = 0.00014181264, No Iterations 1
DILUPBiCGStab:  Solving for Uz, Initial residual = 0.012891105, Final residual = 0.00056534014, No Iterations 1
DICPCG:  Solving for p, Initial residual = 0.078837555, Final residual = 0.00076068325, No Iterations 130
time step continuity errors : sum local = 1.9724385e-006, global = 8.6850777e-008, cumulative = 4.0450711e-006
DILUPBiCGStab:  Solving for epsilon, Initial residual = 0.021972944, Final residual = 4.0241565e-006, No Iterations 1
DILUPBiCGStab:  Solving for k, Initial residual = 0.0026341152, Final residual = 4.3105458e-006, No Iterations 1
ExecutionTime = 689.629 s  ClockTime = 690 s

Time = 35

DILUPBiCGStab:  Solving for Ux, Initial residual = 0.004026121, Final residual = 0.0001714591, No Iterations 1
DILUPBiCGStab:  Solving for Uy, Initial residual = 0.0035744766, Final residual = 0.00014839931, No Iterations 1
DILUPBiCGStab:  Solving for Uz, Initial residual = 0.012549168, Final residual = 0.00055004004, No Iterations 1
DICPCG:  Solving for p, Initial residual = 0.066324846, Final residual = 0.00064589676, No Iterations 93
time step continuity errors : sum local = 1.9721128e-006, global = -2.1837664e-008, cumulative = 4.0232334e-006
DILUPBiCGStab:  Solving for epsilon, Initial residual = 0.01783543, Final residual = 3.2964197e-006, No Iterations 1
DILUPBiCGStab:  Solving for k, Initial residual = 0.0024970246, Final residual = 4.2816035e-006, No Iterations 1
ExecutionTime = 704.637 s  ClockTime = 705 s

Time = 36

DILUPBiCGStab:  Solving for Ux, Initial residual = 0.0040839936, Final residual = 0.00017267129, No Iterations 1
DILUPBiCGStab:  Solving for Uy, Initial residual = 0.0036400863, Final residual = 0.00015009191, No Iterations 1
DILUPBiCGStab:  Solving for Uz, Initial residual = 0.012017362, Final residual = 0.00053703333, No Iterations 1
DICPCG:  Solving for p, Initial residual = 0.060491648, Final residual = 0.00057869487, No Iterations 117
time step continuity errors : sum local = 1.8096338e-006, global = -7.494396e-009, cumulative = 4.015739e-006
DILUPBiCGStab:  Solving for epsilon, Initial residual = 0.014509485, Final residual = 2.7081158e-006, No Iterations 1
DILUPBiCGStab:  Solving for k, Initial residual = 0.0023742793, Final residual = 4.2495449e-006, No Iterations 1
ExecutionTime = 721.038 s  ClockTime = 721 s

Time = 37

DILUPBiCGStab:  Solving for Ux, Initial residual = 0.0039546569, Final residual = 0.00017074463, No Iterations 1
DILUPBiCGStab:  Solving for Uy, Initial residual = 0.0034821544, Final residual = 0.00014527469, No Iterations 1
DILUPBiCGStab:  Solving for Uz, Initial residual = 0.011505564, Final residual = 0.00052566868, No Iterations 1
DICPCG:  Solving for p, Initial residual = 0.059033708, Final residual = 0.0005303874, No Iterations 129
time step continuity errors : sum local = 1.5351209e-006, global = -2.6088111e-008, cumulative = 3.9896509e-006
DILUPBiCGStab:  Solving for epsilon, Initial residual = 0.011820339, Final residual = 2.2281274e-006, No Iterations 1
DILUPBiCGStab:  Solving for k, Initial residual = 0.0022615861, Final residual = 4.2148452e-006, No Iterations 1
ExecutionTime = 739.489 s  ClockTime = 740 s

Time = 38

DILUPBiCGStab:  Solving for Ux, Initial residual = 0.003826987, Final residual = 0.00017100943, No Iterations 1
DILUPBiCGStab:  Solving for Uy, Initial residual = 0.0033523984, Final residual = 0.00014302059, No Iterations 1
DILUPBiCGStab:  Solving for Uz, Initial residual = 0.011132766, Final residual = 0.00051536444, No Iterations 1
DICPCG:  Solving for p, Initial residual = 0.064121671, Final residual = 0.00058442202, No Iterations 128
time step continuity errors : sum local = 1.482715e-006, global = -5.3574848e-008, cumulative = 3.936076e-006
DILUPBiCGStab:  Solving for epsilon, Initial residual = 0.0096398882, Final residual = 1.8356265e-006, No Iterations 1
DILUPBiCGStab:  Solving for k, Initial residual = 0.0021586188, Final residual = 4.1833107e-006, No Iterations 1
ExecutionTime = 756.655 s  ClockTime = 757 s

Time = 39

DILUPBiCGStab:  Solving for Ux, Initial residual = 0.0038660453, Final residual = 0.00017591694, No Iterations 1
DILUPBiCGStab:  Solving for Uy, Initial residual = 0.0034601071, Final residual = 0.00014921236, No Iterations 1
DILUPBiCGStab:  Solving for Uz, Initial residual = 0.010862825, Final residual = 0.00050415632, No Iterations 1
DICPCG:  Solving for p, Initial residual = 0.069006985, Final residual = 0.00065001145, No Iterations 94
time step continuity errors : sum local = 1.5174733e-006, global = 2.1399732e-008, cumulative = 3.9574758e-006
DILUPBiCGStab:  Solving for epsilon, Initial residual = 0.0078705472, Final residual = 1.5158419e-006, No Iterations 1
DILUPBiCGStab:  Solving for k, Initial residual = 0.0020658625, Final residual = 4.1570627e-006, No Iterations 1
ExecutionTime = 770.696 s  ClockTime = 771 s

Time = 40

DILUPBiCGStab:  Solving for Ux, Initial residual = 0.003921262, Final residual = 0.0001791384, No Iterations 1
DILUPBiCGStab:  Solving for Uy, Initial residual = 0.0035666017, Final residual = 0.00015387524, No Iterations 1
DILUPBiCGStab:  Solving for Uz, Initial residual = 0.010641351, Final residual = 0.00049095017, No Iterations 1
DICPCG:  Solving for p, Initial residual = 0.063776068, Final residual = 0.0006286873, No Iterations 92
time step continuity errors : sum local = 1.5383167e-006, global = 1.4738463e-007, cumulative = 4.1048604e-006
DILUPBiCGStab:  Solving for epsilon, Initial residual = 0.0064315839, Final residual = 1.2545384e-006, No Iterations 1
DILUPBiCGStab:  Solving for k, Initial residual = 0.0019821369, Final residual = 4.1316242e-006, No Iterations 1
ExecutionTime = 785.842 s  ClockTime = 786 s

Time = 41

DILUPBiCGStab:  Solving for Ux, Initial residual = 0.0039131911, Final residual = 0.00017866998, No Iterations 1
DILUPBiCGStab:  Solving for Uy, Initial residual = 0.0035683695, Final residual = 0.00015446847, No Iterations 1
DILUPBiCGStab:  Solving for Uz, Initial residual = 0.01048283, Final residual = 0.0004794377, No Iterations 1
DICPCG:  Solving for p, Initial residual = 0.06143978, Final residual = 0.00057590865, No Iterations 113
time step continuity errors : sum local = 1.3853307e-006, global = 6.3386357e-009, cumulative = 4.111199e-006
DILUPBiCGStab:  Solving for epsilon, Initial residual = 0.0052588901, Final residual = 1.0393881e-006, No Iterations 1
DILUPBiCGStab:  Solving for k, Initial residual = 0.0019064589, Final residual = 4.1010924e-006, No Iterations 1
ExecutionTime = 803.359 s  ClockTime = 804 s

Time = 42

DILUPBiCGStab:  Solving for Ux, Initial residual = 0.0038747008, Final residual = 0.00017587585, No Iterations 1
DILUPBiCGStab:  Solving for Uy, Initial residual = 0.0035064187, Final residual = 0.00015279189, No Iterations 1
DILUPBiCGStab:  Solving for Uz, Initial residual = 0.010366349, Final residual = 0.00046889093, No Iterations 1
DICPCG:  Solving for p, Initial residual = 0.062157858, Final residual = 0.00059282344, No Iterations 121
time step continuity errors : sum local = 1.3458242e-006, global = 2.5293415e-009, cumulative = 4.1137284e-006
DILUPBiCGStab:  Solving for epsilon, Initial residual = 0.0043021561, Final residual = 8.6188408e-007, No Iterations 1
DILUPBiCGStab:  Solving for k, Initial residual = 0.0018368522, Final residual = 4.0648148e-006, No Iterations 1
ExecutionTime = 821.292 s  ClockTime = 822 s

Time = 43

DILUPBiCGStab:  Solving for Ux, Initial residual = 0.0038680893, Final residual = 0.00017357017, No Iterations 1
DILUPBiCGStab:  Solving for Uy, Initial residual = 0.0034833932, Final residual = 0.00015249405, No Iterations 1
DILUPBiCGStab:  Solving for Uz, Initial residual = 0.0102379, Final residual = 0.00045959632, No Iterations 1
DICPCG:  Solving for p, Initial residual = 0.057548456, Final residual = 0.00054337937, No Iterations 93
time step continuity errors : sum local = 1.3100456e-006, global = -4.5897213e-008, cumulative = 4.0678312e-006
DILUPBiCGStab:  Solving for epsilon, Initial residual = 0.0035212606, Final residual = 7.1515732e-007, No Iterations 1
DILUPBiCGStab:  Solving for k, Initial residual = 0.001772385, Final residual = 4.0247401e-006, No Iterations 1
ExecutionTime = 835.475 s  ClockTime = 836 s

Time = 44

DILUPBiCGStab:  Solving for Ux, Initial residual = 0.0038984719, Final residual = 0.00017273068, No Iterations 1
DILUPBiCGStab:  Solving for Uy, Initial residual = 0.0035126763, Final residual = 0.0001541283, No Iterations 1
DILUPBiCGStab:  Solving for Uz, Initial residual = 0.010075839, Final residual = 0.00045151927, No Iterations 1
DICPCG:  Solving for p, Initial residual = 0.054539678, Final residual = 0.00050558277, No Iterations 83
time step continuity errors : sum local = 1.2650687e-006, global = 1.2184661e-007, cumulative = 4.1896778e-006
DILUPBiCGStab:  Solving for epsilon, Initial residual = 0.0028848909, Final residual = 5.9453327e-007, No Iterations 1
DILUPBiCGStab:  Solving for k, Initial residual = 0.0017134311, Final residual = 3.984585e-006, No Iterations 1
ExecutionTime = 847.001 s  ClockTime = 847 s

Time = 45

DILUPBiCGStab:  Solving for Ux, Initial residual = 0.0039192363, Final residual = 0.00017229732, No Iterations 1
DILUPBiCGStab:  Solving for Uy, Initial residual = 0.0035373382, Final residual = 0.00015558651, No Iterations 1
DILUPBiCGStab:  Solving for Uz, Initial residual = 0.0098793241, Final residual = 0.00044234741, No Iterations 1
DICPCG:  Solving for p, Initial residual = 0.052692632, Final residual = 0.00052159809, No Iterations 95
time step continuity errors : sum local = 1.3100733e-006, global = -2.8213353e-008, cumulative = 4.1614644e-006
DILUPBiCGStab:  Solving for epsilon, Initial residual = 0.0023655572, Final residual = 4.9539335e-007, No Iterations 1
DILUPBiCGStab:  Solving for k, Initial residual = 0.0016597234, Final residual = 3.9471351e-006, No Iterations 1
ExecutionTime = 862.393 s  ClockTime = 863 s

Time = 46

DILUPBiCGStab:  Solving for Ux, Initial residual = 0.0039299018, Final residual = 0.00017241369, No Iterations 1
DILUPBiCGStab:  Solving for Uy, Initial residual = 0.0035582171, Final residual = 0.00015712874, No Iterations 1
DILUPBiCGStab:  Solving for Uz, Initial residual = 0.0096664167, Final residual = 0.00043277347, No Iterations 1
DICPCG:  Solving for p, Initial residual = 0.05184971, Final residual = 0.00049079883, No Iterations 94
time step continuity errors : sum local = 1.2089318e-006, global = 9.223354e-010, cumulative = 4.1623868e-006
DILUPBiCGStab:  Solving for epsilon, Initial residual = 0.0019410526, Final residual = 4.1341545e-007, No Iterations 1
DILUPBiCGStab:  Solving for k, Initial residual = 0.001610314, Final residual = 3.911815e-006, No Iterations 1
ExecutionTime = 877.639 s  ClockTime = 878 s

Time = 47

DILUPBiCGStab:  Solving for Ux, Initial residual = 0.0039460953, Final residual = 0.00017322292, No Iterations 1
DILUPBiCGStab:  Solving for Uy, Initial residual = 0.0035919429, Final residual = 0.00015921572, No Iterations 1
DILUPBiCGStab:  Solving for Uz, Initial residual = 0.0094692469, Final residual = 0.00042336862, No Iterations 1
DICPCG:  Solving for p, Initial residual = 0.051987974, Final residual = 0.00050873149, No Iterations 87
time step continuity errors : sum local = 1.2144788e-006, global = 6.0250571e-008, cumulative = 4.2226373e-006
DILUPBiCGStab:  Solving for epsilon, Initial residual = 0.0015941892, Final residual = 3.4554022e-007, No Iterations 1
DILUPBiCGStab:  Solving for k, Initial residual = 0.0015649275, Final residual = 3.8788011e-006, No Iterations 1
ExecutionTime = 892.076 s  ClockTime = 893 s

Time = 48

DILUPBiCGStab:  Solving for Ux, Initial residual = 0.0039680745, Final residual = 0.00017437426, No Iterations 1
DILUPBiCGStab:  Solving for Uy, Initial residual = 0.0036404684, Final residual = 0.00016211728, No Iterations 1
DILUPBiCGStab:  Solving for Uz, Initial residual = 0.0092928001, Final residual = 0.00041444356, No Iterations 1
DICPCG:  Solving for p, Initial residual = 0.052365684, Final residual = 0.00050675318, No Iterations 84
time step continuity errors : sum local = 1.1748565e-006, global = 8.7923461e-010, cumulative = 4.2235166e-006
DILUPBiCGStab:  Solving for epsilon, Initial residual = 0.0013105268, Final residual = 2.8913113e-007, No Iterations 1
DILUPBiCGStab:  Solving for k, Initial residual = 0.0015229236, Final residual = 3.8473378e-006, No Iterations 1
ExecutionTime = 905.629 s  ClockTime = 906 s

Time = 49

DILUPBiCGStab:  Solving for Ux, Initial residual = 0.0039887315, Final residual = 0.00017509146, No Iterations 1
DILUPBiCGStab:  Solving for Uy, Initial residual = 0.0036838113, Final residual = 0.00016494174, No Iterations 1
DILUPBiCGStab:  Solving for Uz, Initial residual = 0.0091375647, Final residual = 0.00040583551, No Iterations 1
DICPCG:  Solving for p, Initial residual = 0.052021292, Final residual = 0.00051730981, No Iterations 24
time step continuity errors : sum local = 1.1805639e-006, global = 1.8809244e-007, cumulative = 4.411609e-006
DILUPBiCGStab:  Solving for epsilon, Initial residual = 0.0010788018, Final residual = 2.4285e-007, No Iterations 1
DILUPBiCGStab:  Solving for k, Initial residual = 0.0014842058, Final residual = 3.8173016e-006, No Iterations 1
ExecutionTime = 912.662 s  ClockTime = 913 s

Time = 50

DILUPBiCGStab:  Solving for Ux, Initial residual = 0.0040081738, Final residual = 0.00017507378, No Iterations 1
DILUPBiCGStab:  Solving for Uy, Initial residual = 0.0037187761, Final residual = 0.00016732321, No Iterations 1
DILUPBiCGStab:  Solving for Uz, Initial residual = 0.0090080749, Final residual = 0.00039695712, No Iterations 1
DICPCG:  Solving for p, Initial residual = 0.050949679, Final residual = 0.00049810686, No Iterations 66
time step continuity errors : sum local = 1.1340291e-006, global = 8.0948668e-008, cumulative = 4.4925577e-006
DILUPBiCGStab:  Solving for epsilon, Initial residual = 0.00088933662, Final residual = 2.050668e-007, No Iterations 1
DILUPBiCGStab:  Solving for k, Initial residual = 0.0014486706, Final residual = 3.7889874e-006, No Iterations 1
ExecutionTime = 924.26 s  ClockTime = 925 s

Time = 51

DILUPBiCGStab:  Solving for Ux, Initial residual = 0.0040231703, Final residual = 0.00017475012, No Iterations 1
DILUPBiCGStab:  Solving for Uy, Initial residual = 0.0037463191, Final residual = 0.00016952947, No Iterations 1
DILUPBiCGStab:  Solving for Uz, Initial residual = 0.0088906946, Final residual = 0.00038836038, No Iterations 1
DICPCG:  Solving for p, Initial residual = 0.049616159, Final residual = 0.00047528247, No Iterations 71
time step continuity errors : sum local = 1.0897971e-006, global = 8.2310982e-008, cumulative = 4.5748686e-006
DILUPBiCGStab:  Solving for epsilon, Initial residual = 0.00073433897, Final residual = 1.7418403e-007, No Iterations 1
DILUPBiCGStab:  Solving for k, Initial residual = 0.0014156759, Final residual = 3.7609194e-006, No Iterations 1
ExecutionTime = 935.661 s  ClockTime = 936 s

Time = 52

DILUPBiCGStab:  Solving for Ux, Initial residual = 0.0040394098, Final residual = 0.00017431925, No Iterations 1
DILUPBiCGStab:  Solving for Uy, Initial residual = 0.0037740959, Final residual = 0.00017163599, No Iterations 1
DILUPBiCGStab:  Solving for Uz, Initial residual = 0.0087755533, Final residual = 0.00037931748, No Iterations 1
DICPCG:  Solving for p, Initial residual = 0.048215796, Final residual = 0.00046947108, No Iterations 66
time step continuity errors : sum local = 1.0902172e-006, global = 1.0410951e-007, cumulative = 4.6789782e-006
DILUPBiCGStab:  Solving for epsilon, Initial residual = 0.00060749063, Final residual = 1.4902564e-007, No Iterations 1
DILUPBiCGStab:  Solving for k, Initial residual = 0.0013848461, Final residual = 3.732797e-006, No Iterations 1
ExecutionTime = 947.326 s  ClockTime = 948 s

Time = 53

DILUPBiCGStab:  Solving for Ux, Initial residual = 0.0040577471, Final residual = 0.00017423054, No Iterations 1
DILUPBiCGStab:  Solving for Uy, Initial residual = 0.0038062265, Final residual = 0.00017388137, No Iterations 1
DILUPBiCGStab:  Solving for Uz, Initial residual = 0.0086610656, Final residual = 0.00037022065, No Iterations 1
DICPCG:  Solving for p, Initial residual = 0.047078411, Final residual = 0.00044574388, No Iterations 24
time step continuity errors : sum local = 1.0432821e-006, global = 1.4230471e-007, cumulative = 4.8212829e-006
DILUPBiCGStab:  Solving for epsilon, Initial residual = 0.00050345881, Final residual = 1.2818997e-007, No Iterations 1
DILUPBiCGStab:  Solving for k, Initial residual = 0.0013559358, Final residual = 3.7048282e-006, No Iterations 1
ExecutionTime = 954.422 s  ClockTime = 955 s

Time = 54

DILUPBiCGStab:  Solving for Ux, Initial residual = 0.004075082, Final residual = 0.00017467101, No Iterations 1
DILUPBiCGStab:  Solving for Uy, Initial residual = 0.0038432083, Final residual = 0.00017624931, No Iterations 1
DILUPBiCGStab:  Solving for Uz, Initial residual = 0.0085489025, Final residual = 0.00036166077, No Iterations 1
DICPCG:  Solving for p, Initial residual = 0.046370905, Final residual = 0.00044659868, No Iterations 25
time step continuity errors : sum local = 1.0430925e-006, global = -1.7950358e-007, cumulative = 4.6417793e-006
DILUPBiCGStab:  Solving for epsilon, Initial residual = 0.00041816581, Final residual = 1.1089217e-007, No Iterations 1
DILUPBiCGStab:  Solving for k, Initial residual = 0.0013291551, Final residual = 3.6779652e-006, No Iterations 1
ExecutionTime = 961.995 s  ClockTime = 962 s

Time = 55

DILUPBiCGStab:  Solving for Ux, Initial residual = 0.0040920296, Final residual = 0.00017526582, No Iterations 1
DILUPBiCGStab:  Solving for Uy, Initial residual = 0.0038793972, Final residual = 0.00017858576, No Iterations 1
DILUPBiCGStab:  Solving for Uz, Initial residual = 0.0084285372, Final residual = 0.00035326437, No Iterations 1
DICPCG:  Solving for p, Initial residual = 0.045678338, Final residual = 0.0004497432, No Iterations 65
time step continuity errors : sum local = 1.0480587e-006, global = -9.1718191e-008, cumulative = 4.5500611e-006
DILUPBiCGStab:  Solving for epsilon, Initial residual = 0.0003481058, Final residual = 9.6464487e-008, No Iterations 1
DILUPBiCGStab:  Solving for k, Initial residual = 0.0013044021, Final residual = 3.6524722e-006, No Iterations 1
ExecutionTime = 973.743 s  ClockTime = 974 s

Time = 56

DILUPBiCGStab:  Solving for Ux, Initial residual = 0.0041103334, Final residual = 0.00017615987, No Iterations 1
DILUPBiCGStab:  Solving for Uy, Initial residual = 0.0039152545, Final residual = 0.00018080129, No Iterations 1
DILUPBiCGStab:  Solving for Uz, Initial residual = 0.0083181587, Final residual = 0.00034513528, No Iterations 1
DICPCG:  Solving for p, Initial residual = 0.045309166, Final residual = 0.0004365374, No Iterations 64
time step continuity errors : sum local = 1.009089e-006, global = -2.6666065e-008, cumulative = 4.523395e-006
DILUPBiCGStab:  Solving for epsilon, Initial residual = 0.00029044598, Final residual = 8.4294722e-008, No Iterations 1
DILUPBiCGStab:  Solving for k, Initial residual = 0.0012812141, Final residual = 3.627794e-006, No Iterations 1
ExecutionTime = 985.295 s  ClockTime = 986 s

Time = 57

DILUPBiCGStab:  Solving for Ux, Initial residual = 0.0041268616, Final residual = 0.00017714398, No Iterations 1
DILUPBiCGStab:  Solving for Uy, Initial residual = 0.0039511058, Final residual = 0.0001829721, No Iterations 1
DILUPBiCGStab:  Solving for Uz, Initial residual = 0.0082113471, Final residual = 0.00033802205, No Iterations 1
DICPCG:  Solving for p, Initial residual = 0.04513903, Final residual = 0.00044590697, No Iterations 61
time step continuity errors : sum local = 1.0183635e-006, global = -9.9049459e-008, cumulative = 4.4243456e-006
DILUPBiCGStab:  Solving for epsilon, Initial residual = 0.00024295356, Final residual = 7.3991704e-008, No Iterations 1
DILUPBiCGStab:  Solving for k, Initial residual = 0.0012593818, Final residual = 3.6039699e-006, No Iterations 1
ExecutionTime = 996.612 s  ClockTime = 997 s

Time = 58

DILUPBiCGStab:  Solving for Ux, Initial residual = 0.0041405679, Final residual = 0.0001780726, No Iterations 1
DILUPBiCGStab:  Solving for Uy, Initial residual = 0.0039847547, Final residual = 0.00018499963, No Iterations 1
DILUPBiCGStab:  Solving for Uz, Initial residual = 0.0081085626, Final residual = 0.0003315668, No Iterations 1
DICPCG:  Solving for p, Initial residual = 0.044838286, Final residual = 0.00043846603, No Iterations 20
time step continuity errors : sum local = 9.9213263e-007, global = -1.8567433e-007, cumulative = 4.2386712e-006
DILUPBiCGStab:  Solving for epsilon, Initial residual = 0.00020379587, Final residual = 6.5328183e-008, No Iterations 1
DILUPBiCGStab:  Solving for k, Initial residual = 0.0012390572, Final residual = 3.5816886e-006, No Iterations 1
ExecutionTime = 1003.438 s  ClockTime = 1004 s

Time = 59

DILUPBiCGStab:  Solving for Ux, Initial residual = 0.0041547407, Final residual = 0.00017899145, No Iterations 1
DILUPBiCGStab:  Solving for Uy, Initial residual = 0.0040144675, Final residual = 0.00018673257, No Iterations 1
DILUPBiCGStab:  Solving for Uz, Initial residual = 0.0080169185, Final residual = 0.00032567285, No Iterations 1
DICPCG:  Solving for p, Initial residual = 0.044244914, Final residual = 0.00042264015, No Iterations 21
time step continuity errors : sum local = 9.5398593e-007, global = -7.2572777e-008, cumulative = 4.1660985e-006
DILUPBiCGStab:  Solving for epsilon, Initial residual = 0.00017146439, Final residual = 5.8057999e-008, No Iterations 1
DILUPBiCGStab:  Solving for k, Initial residual = 0.0012203782, Final residual = 3.5616617e-006, No Iterations 1
ExecutionTime = 1010.755 s  ClockTime = 1011 s

Time = 60

DILUPBiCGStab:  Solving for Ux, Initial residual = 0.0041688215, Final residual = 0.00018005133, No Iterations 1
DILUPBiCGStab:  Solving for Uy, Initial residual = 0.0040438692, Final residual = 0.00018832476, No Iterations 1
DILUPBiCGStab:  Solving for Uz, Initial residual = 0.0079405097, Final residual = 0.00032057976, No Iterations 1
DICPCG:  Solving for p, Initial residual = 0.043736714, Final residual = 0.00043226083, No Iterations 22
time step continuity errors : sum local = 9.733299e-007, global = 1.8266511e-009, cumulative = 4.1679251e-006
DILUPBiCGStab:  Solving for epsilon, Initial residual = 0.00014472726, Final residual = 5.1979912e-008, No Iterations 1
DILUPBiCGStab:  Solving for k, Initial residual = 0.0012031213, Final residual = 3.5434209e-006, No Iterations 1
ExecutionTime = 1017.267 s  ClockTime = 1018 s

Time = 61

DILUPBiCGStab:  Solving for Ux, Initial residual = 0.0041828523, Final residual = 0.0001811894, No Iterations 1
DILUPBiCGStab:  Solving for Uy, Initial residual = 0.0040723178, Final residual = 0.00018975887, No Iterations 1
DILUPBiCGStab:  Solving for Uz, Initial residual = 0.0078702117, Final residual = 0.0003165081, No Iterations 1
DICPCG:  Solving for p, Initial residual = 0.043313279, Final residual = 0.000420126, No Iterations 24
time step continuity errors : sum local = 9.4371828e-007, global = 2.5201889e-008, cumulative = 4.193127e-006
DILUPBiCGStab:  Solving for epsilon, Initial residual = 0.00012290651, Final residual = 4.7399448e-008, No Iterations 1
DILUPBiCGStab:  Solving for k, Initial residual = 0.0011869887, Final residual = 3.5262543e-006, No Iterations 1
ExecutionTime = 1024.426 s  ClockTime = 1025 s

Time = 62

DILUPBiCGStab:  Solving for Ux, Initial residual = 0.0041966898, Final residual = 0.00018242272, No Iterations 1
DILUPBiCGStab:  Solving for Uy, Initial residual = 0.0040996649, Final residual = 0.00019107238, No Iterations 1
DILUPBiCGStab:  Solving for Uz, Initial residual = 0.0077995536, Final residual = 0.00031293109, No Iterations 1
DICPCG:  Solving for p, Initial residual = 0.042970491, Final residual = 0.00041998319, No Iterations 25
time step continuity errors : sum local = 9.4118477e-007, global = -1.7512301e-009, cumulative = 4.1913758e-006
DILUPBiCGStab:  Solving for epsilon, Initial residual = 0.00010486233, Final residual = 4.3703406e-008, No Iterations 1
DILUPBiCGStab:  Solving for k, Initial residual = 0.0011720217, Final residual = 3.5105815e-006, No Iterations 1
ExecutionTime = 1031.604 s  ClockTime = 1032 s

Time = 63

DILUPBiCGStab:  Solving for Ux, Initial residual = 0.0042103518, Final residual = 0.00018373356, No Iterations 1
DILUPBiCGStab:  Solving for Uy, Initial residual = 0.0041264233, Final residual = 0.00019225755, No Iterations 1
DILUPBiCGStab:  Solving for Uz, Initial residual = 0.0077291104, Final residual = 0.00031006559, No Iterations 1
DICPCG:  Solving for p, Initial residual = 0.042666532, Final residual = 0.00038991445, No Iterations 26
time step continuity errors : sum local = 8.7178411e-007, global = -6.7962572e-008, cumulative = 4.1234132e-006
DILUPBiCGStab:  Solving for epsilon, Initial residual = 8.988028e-005, Final residual = 4.0666065e-008, No Iterations 1
DILUPBiCGStab:  Solving for k, Initial residual = 0.0011584548, Final residual = 3.4973965e-006, No Iterations 1
ExecutionTime = 1036.953 s  ClockTime = 1037 s

Time = 64

DILUPBiCGStab:  Solving for Ux, Initial residual = 0.0042240047, Final residual = 0.00018507378, No Iterations 1
DILUPBiCGStab:  Solving for Uy, Initial residual = 0.004152507, Final residual = 0.00019329266, No Iterations 1
DILUPBiCGStab:  Solving for Uz, Initial residual = 0.0076610619, Final residual = 0.00030786023, No Iterations 1
DICPCG:  Solving for p, Initial residual = 0.042357723, Final residual = 0.00038806399, No Iterations 27
time step continuity errors : sum local = 8.6558228e-007, global = -1.6351771e-007, cumulative = 3.9598955e-006
DILUPBiCGStab:  Solving for epsilon, Initial residual = 7.7407084e-005, Final residual = 3.8163052e-008, No Iterations 1
DILUPBiCGStab:  Solving for k, Initial residual = 0.001146269, Final residual = 3.4869741e-006, No Iterations 1
ExecutionTime = 1045.056 s  ClockTime = 1045 s

Time = 65

DILUPBiCGStab:  Solving for Ux, Initial residual = 0.0042377073, Final residual = 0.00018640694, No Iterations 1
DILUPBiCGStab:  Solving for Uy, Initial residual = 0.0041781731, Final residual = 0.00019417637, No Iterations 1
DILUPBiCGStab:  Solving for Uz, Initial residual = 0.0075995205, Final residual = 0.00030635605, No Iterations 1
DICPCG:  Solving for p, Initial residual = 0.042026971, Final residual = 0.00041395713, No Iterations 52
time step continuity errors : sum local = 9.2098016e-007, global = -1.3736403e-007, cumulative = 3.8225315e-006
DILUPBiCGStab:  Solving for epsilon, Initial residual = 6.6988819e-005, Final residual = 3.6075618e-008, No Iterations 1
DILUPBiCGStab:  Solving for k, Initial residual = 0.001135105, Final residual = 3.4782622e-006, No Iterations 1
ExecutionTime = 1054.534 s  ClockTime = 1055 s

Time = 66

DILUPBiCGStab:  Solving for Ux, Initial residual = 0.0042529182, Final residual = 0.00018770969, No Iterations 1
DILUPBiCGStab:  Solving for Uy, Initial residual = 0.0042039766, Final residual = 0.0001949038, No Iterations 1
DILUPBiCGStab:  Solving for Uz, Initial residual = 0.0075421159, Final residual = 0.00030566889, No Iterations 1
DICPCG:  Solving for p, Initial residual = 0.041803792, Final residual = 0.000416718, No Iterations 54
time step continuity errors : sum local = 9.230854e-007, global = -7.6693285e-008, cumulative = 3.7458382e-006
DILUPBiCGStab:  Solving for epsilon, Initial residual = 5.8281462e-005, Final residual = 3.4333195e-008, No Iterations 1
DILUPBiCGStab:  Solving for k, Initial residual = 0.0011248774, Final residual = 3.4713252e-006, No Iterations 1
ExecutionTime = 1065.797 s  ClockTime = 1066 s

Time = 67

DILUPBiCGStab:  Solving for Ux, Initial residual = 0.004268015, Final residual = 0.00018909976, No Iterations 1
DILUPBiCGStab:  Solving for Uy, Initial residual = 0.0042309772, Final residual = 0.00019556653, No Iterations 1
DILUPBiCGStab:  Solving for Uz, Initial residual = 0.0074918612, Final residual = 0.00030521621, No Iterations 1
DICPCG:  Solving for p, Initial residual = 0.041684637, Final residual = 0.00039882389, No Iterations 26
time step continuity errors : sum local = 8.7759771e-007, global = -2.838994e-007, cumulative = 3.4619388e-006
DILUPBiCGStab:  Solving for epsilon, Initial residual = 5.0996796e-005, Final residual = 3.2914536e-008, No Iterations 1
DILUPBiCGStab:  Solving for k, Initial residual = 0.0011158491, Final residual = 3.4670737e-006, No Iterations 1
ExecutionTime = 1073.501 s  ClockTime = 1074 s

Time = 68

DILUPBiCGStab:  Solving for Ux, Initial residual = 0.0042800366, Final residual = 0.00019028802, No Iterations 1
DILUPBiCGStab:  Solving for Uy, Initial residual = 0.0042548695, Final residual = 0.00019602375, No Iterations 1
DILUPBiCGStab:  Solving for Uz, Initial residual = 0.0074416128, Final residual = 0.00030475826, No Iterations 1
DICPCG:  Solving for p, Initial residual = 0.041410517, Final residual = 0.00041215956, No Iterations 58
time step continuity errors : sum local = 9.0433014e-007, global = -9.2759473e-008, cumulative = 3.3691793e-006
DILUPBiCGStab:  Solving for epsilon, Initial residual = 4.4891189e-005, Final residual = 3.1774244e-008, No Iterations 1
DILUPBiCGStab:  Solving for k, Initial residual = 0.0011081148, Final residual = 3.4657922e-006, No Iterations 1
ExecutionTime = 1083.927 s  ClockTime = 1084 s

Time = 69

DILUPBiCGStab:  Solving for Ux, Initial residual = 0.0042913606, Final residual = 0.00019149285, No Iterations 1
DILUPBiCGStab:  Solving for Uy, Initial residual = 0.0042811577, Final residual = 0.00019649782, No Iterations 1
DILUPBiCGStab:  Solving for Uz, Initial residual = 0.007391474, Final residual = 0.00030441823, No Iterations 1
DICPCG:  Solving for p, Initial residual = 0.041372365, Final residual = 0.0003884616, No Iterations 27
time step continuity errors : sum local = 8.4501244e-007, global = -2.6184955e-007, cumulative = 3.1073298e-006
DILUPBiCGStab:  Solving for epsilon, Initial residual = 3.9755194e-005, Final residual = 3.0853915e-008, No Iterations 1
DILUPBiCGStab:  Solving for k, Initial residual = 0.0011013906, Final residual = 3.4665464e-006, No Iterations 1
ExecutionTime = 1091.48 s  ClockTime = 1092 s

Time = 70

DILUPBiCGStab:  Solving for Ux, Initial residual = 0.0043028041, Final residual = 0.00019240949, No Iterations 1
DILUPBiCGStab:  Solving for Uy, Initial residual = 0.0043036676, Final residual = 0.00019676467, No Iterations 1
DILUPBiCGStab:  Solving for Uz, Initial residual = 0.0073480896, Final residual = 0.0003047358, No Iterations 1
DICPCG:  Solving for p, Initial residual = 0.041102941, Final residual = 0.00039811937, No Iterations 72
time step continuity errors : sum local = 8.6339209e-007, global = -2.5911867e-009, cumulative = 3.1047386e-006
DILUPBiCGStab:  Solving for epsilon, Initial residual = 3.543333e-005, Final residual = 3.011257e-008, No Iterations 1
DILUPBiCGStab:  Solving for k, Initial residual = 0.0010954202, Final residual = 3.4687411e-006, No Iterations 1
ExecutionTime = 1104.849 s  ClockTime = 1105 s

Time = 71

DILUPBiCGStab:  Solving for Ux, Initial residual = 0.0043147726, Final residual = 0.00019305685, No Iterations 1
DILUPBiCGStab:  Solving for Uy, Initial residual = 0.0043269984, Final residual = 0.00019693371, No Iterations 1
DILUPBiCGStab:  Solving for Uz, Initial residual = 0.0073073044, Final residual = 0.00030551889, No Iterations 1
DICPCG:  Solving for p, Initial residual = 0.041037923, Final residual = 0.00039009686, No Iterations 28
time step continuity errors : sum local = 8.396667e-007, global = -1.9785039e-007, cumulative = 2.9068882e-006
DILUPBiCGStab:  Solving for epsilon, Initial residual = 3.1791315e-005, Final residual = 2.9532278e-008, No Iterations 1
DILUPBiCGStab:  Solving for k, Initial residual = 0.0010904133, Final residual = 3.4731472e-006, No Iterations 1
ExecutionTime = 1112.378 s  ClockTime = 1113 s

Time = 72

DILUPBiCGStab:  Solving for Ux, Initial residual = 0.0043254095, Final residual = 0.00019370948, No Iterations 1
DILUPBiCGStab:  Solving for Uy, Initial residual = 0.004347843, Final residual = 0.00019706949, No Iterations 1
DILUPBiCGStab:  Solving for Uz, Initial residual = 0.0072671997, Final residual = 0.00030623709, No Iterations 1
DICPCG:  Solving for p, Initial residual = 0.04072796, Final residual = 0.00040491289, No Iterations 30
time step continuity errors : sum local = 8.6892883e-007, global = -2.239342e-007, cumulative = 2.682954e-006
DILUPBiCGStab:  Solving for epsilon, Initial residual = 2.8721983e-005, Final residual = 2.9118009e-008, No Iterations 1
DILUPBiCGStab:  Solving for k, Initial residual = 0.001086576, Final residual = 3.4804428e-006, No Iterations 1
ExecutionTime = 1119.855 s  ClockTime = 1120 s

Time = 73

DILUPBiCGStab:  Solving for Ux, Initial residual = 0.0043356676, Final residual = 0.00019421189, No Iterations 1
DILUPBiCGStab:  Solving for Uy, Initial residual = 0.0043678329, Final residual = 0.00019711683, No Iterations 1
DILUPBiCGStab:  Solving for Uz, Initial residual = 0.0072253425, Final residual = 0.00030682996, No Iterations 1
DICPCG:  Solving for p, Initial residual = 0.04041511, Final residual = 0.00040165473, No Iterations 60
time step continuity errors : sum local = 8.5929641e-007, global = -4.9481052e-008, cumulative = 2.6334729e-006
DILUPBiCGStab:  Solving for epsilon, Initial residual = 2.6128393e-005, Final residual = 2.8852989e-008, No Iterations 1
DILUPBiCGStab:  Solving for k, Initial residual = 0.001083704, Final residual = 3.4897969e-006, No Iterations 1
ExecutionTime = 1131.329 s  ClockTime = 1132 s

Time = 74

DILUPBiCGStab:  Solving for Ux, Initial residual = 0.0043468596, Final residual = 0.0001945474, No Iterations 1
DILUPBiCGStab:  Solving for Uy, Initial residual = 0.004387964, Final residual = 0.00019707214, No Iterations 1
DILUPBiCGStab:  Solving for Uz, Initial residual = 0.0071824129, Final residual = 0.00030712354, No Iterations 1
DICPCG:  Solving for p, Initial residual = 0.040200304, Final residual = 0.00038845689, No Iterations 61
time step continuity errors : sum local = 8.2636804e-007, global = -6.306654e-008, cumulative = 2.5704064e-006
DILUPBiCGStab:  Solving for epsilon, Initial residual = 2.3927966e-005, Final residual = 2.8695254e-008, No Iterations 1
DILUPBiCGStab:  Solving for k, Initial residual = 0.0010814526, Final residual = 3.5001485e-006, No Iterations 1
ExecutionTime = 1143.289 s  ClockTime = 1144 s

Time = 75

DILUPBiCGStab:  Solving for Ux, Initial residual = 0.0043562374, Final residual = 0.00019472686, No Iterations 1
DILUPBiCGStab:  Solving for Uy, Initial residual = 0.0044075869, Final residual = 0.00019699204, No Iterations 1
DILUPBiCGStab:  Solving for Uz, Initial residual = 0.0071438452, Final residual = 0.00030703552, No Iterations 1
DICPCG:  Solving for p, Initial residual = 0.040014049, Final residual = 0.00039929741, No Iterations 20
time step continuity errors : sum local = 8.4415959e-007, global = -1.9114902e-007, cumulative = 2.3792574e-006
DILUPBiCGStab:  Solving for epsilon, Initial residual = 2.2062554e-005, Final residual = 2.8651545e-008, No Iterations 1
DILUPBiCGStab:  Solving for k, Initial residual = 0.0010799187, Final residual = 3.5118865e-006, No Iterations 1
ExecutionTime = 1150.822 s  ClockTime = 1151 s

Time = 76

DILUPBiCGStab:  Solving for Ux, Initial residual = 0.0043620407, Final residual = 0.00019463938, No Iterations 1
DILUPBiCGStab:  Solving for Uy, Initial residual = 0.0044236286, Final residual = 0.00019674974, No Iterations 1
DILUPBiCGStab:  Solving for Uz, Initial residual = 0.0071065355, Final residual = 0.00030658865, No Iterations 1
DICPCG:  Solving for p, Initial residual = 0.039718571, Final residual = 0.00037175486, No Iterations 27
time step continuity errors : sum local = 7.8357518e-007, global = -2.3862472e-007, cumulative = 2.1406326e-006
DILUPBiCGStab:  Solving for epsilon, Initial residual = 2.0484328e-005, Final residual = 2.8729501e-008, No Iterations 1
DILUPBiCGStab:  Solving for k, Initial residual = 0.0010793749, Final residual = 3.5257603e-006, No Iterations 1
ExecutionTime = 1157.621 s  ClockTime = 1158 s

Time = 77

DILUPBiCGStab:  Solving for Ux, Initial residual = 0.0043666778, Final residual = 0.00019437271, No Iterations 1
DILUPBiCGStab:  Solving for Uy, Initial residual = 0.0044385621, Final residual = 0.0001964408, No Iterations 1
DILUPBiCGStab:  Solving for Uz, Initial residual = 0.0070677076, Final residual = 0.00030611888, No Iterations 1
DICPCG:  Solving for p, Initial residual = 0.039452657, Final residual = 0.00038502153, No Iterations 65
time step continuity errors : sum local = 8.0893141e-007, global = -4.8332274e-008, cumulative = 2.0923004e-006
DILUPBiCGStab:  Solving for epsilon, Initial residual = 1.9151229e-005, Final residual = 2.8927157e-008, No Iterations 1
DILUPBiCGStab:  Solving for k, Initial residual = 0.0010797116, Final residual = 3.5413053e-006, No Iterations 1
ExecutionTime = 1169.85 s  ClockTime = 1170 s

Time = 78

DILUPBiCGStab:  Solving for Ux, Initial residual = 0.0043720157, Final residual = 0.00019389876, No Iterations 1
DILUPBiCGStab:  Solving for Uy, Initial residual = 0.0044555746, Final residual = 0.00019616018, No Iterations 1
DILUPBiCGStab:  Solving for Uz, Initial residual = 0.007029396, Final residual = 0.00030528175, No Iterations 1
DICPCG:  Solving for p, Initial residual = 0.039455486, Final residual = 0.00037948642, No Iterations 62
time step continuity errors : sum local = 7.8982108e-007, global = -4.986794e-008, cumulative = 2.0424324e-006
DILUPBiCGStab:  Solving for epsilon, Initial residual = 1.8021235e-005, Final residual = 2.9228115e-008, No Iterations 1
DILUPBiCGStab:  Solving for k, Initial residual = 0.0010805246, Final residual = 3.5570729e-006, No Iterations 1
ExecutionTime = 1180.89 s  ClockTime = 1181 s

Time = 79

DILUPBiCGStab:  Solving for Ux, Initial residual = 0.0043765466, Final residual = 0.00019331686, No Iterations 1
DILUPBiCGStab:  Solving for Uy, Initial residual = 0.004469865, Final residual = 0.00019577341, No Iterations 1
DILUPBiCGStab:  Solving for Uz, Initial residual = 0.0069903906, Final residual = 0.00030415403, No Iterations 1
DICPCG:  Solving for p, Initial residual = 0.039363444, Final residual = 0.0003762825, No Iterations 18
time step continuity errors : sum local = 7.7753788e-007, global = -1.7967842e-007, cumulative = 1.862754e-006
DILUPBiCGStab:  Solving for epsilon, Initial residual = 1.7067584e-005, Final residual = 2.962353e-008, No Iterations 1
DILUPBiCGStab:  Solving for k, Initial residual = 0.0010817851, Final residual = 3.5730438e-006, No Iterations 1
ExecutionTime = 1187.063 s  ClockTime = 1187 s

Time = 80

DILUPBiCGStab:  Solving for Ux, Initial residual = 0.0043781399, Final residual = 0.0001926539, No Iterations 1
DILUPBiCGStab:  Solving for Uy, Initial residual = 0.0044782268, Final residual = 0.00019521797, No Iterations 1
DILUPBiCGStab:  Solving for Uz, Initial residual = 0.0069488095, Final residual = 0.00030255406, No Iterations 1
DICPCG:  Solving for p, Initial residual = 0.039078805, Final residual = 0.00037932701, No Iterations 60
time step continuity errors : sum local = 7.8141605e-007, global = -8.1308464e-008, cumulative = 1.7814455e-006
DILUPBiCGStab:  Solving for epsilon, Initial residual = 1.6270826e-005, Final residual = 3.0120171e-008, No Iterations 1
DILUPBiCGStab:  Solving for k, Initial residual = 0.0010837872, Final residual = 3.5900596e-006, No Iterations 1
ExecutionTime = 1198.195 s  ClockTime = 1199 s

Time = 81

DILUPBiCGStab:  Solving for Ux, Initial residual = 0.004380895, Final residual = 0.00019187748, No Iterations 1
DILUPBiCGStab:  Solving for Uy, Initial residual = 0.0044861628, Final residual = 0.00019457349, No Iterations 1
DILUPBiCGStab:  Solving for Uz, Initial residual = 0.0069137231, Final residual = 0.00030091081, No Iterations 1
DICPCG:  Solving for p, Initial residual = 0.038905352, Final residual = 0.00038514386, No Iterations 60
time step continuity errors : sum local = 7.894317e-007, global = -7.7810565e-008, cumulative = 1.703635e-006
DILUPBiCGStab:  Solving for epsilon, Initial residual = 1.5611007e-005, Final residual = 3.0705263e-008, No Iterations 1
DILUPBiCGStab:  Solving for k, Initial residual = 0.0010865093, Final residual = 3.6079915e-006, No Iterations 1
ExecutionTime = 1209.015 s  ClockTime = 1209 s

Time = 82

DILUPBiCGStab:  Solving for Ux, Initial residual = 0.0043825832, Final residual = 0.00019100721, No Iterations 1
DILUPBiCGStab:  Solving for Uy, Initial residual = 0.0044922592, Final residual = 0.00019385261, No Iterations 1
DILUPBiCGStab:  Solving for Uz, Initial residual = 0.0068785108, Final residual = 0.00029889627, No Iterations 1
DICPCG:  Solving for p, Initial residual = 0.038711308, Final residual = 0.00038673396, No Iterations 27
time step continuity errors : sum local = 7.8868978e-007, global = -2.0547506e-007, cumulative = 1.4981599e-006
DILUPBiCGStab:  Solving for epsilon, Initial residual = 1.5065281e-005, Final residual = 3.1358665e-008, No Iterations 1
DILUPBiCGStab:  Solving for k, Initial residual = 0.0010895452, Final residual = 3.6253858e-006, No Iterations 1
ExecutionTime = 1215.336 s  ClockTime = 1216 s

Time = 83

DILUPBiCGStab:  Solving for Ux, Initial residual = 0.0043803852, Final residual = 0.00018998435, No Iterations 1
[...]
ExecutionTime = 33662.044 s  ClockTime = 33662 s

Time = 4009

DILUPBiCGStab:  Solving for Ux, Initial residual = 2.7563526e-006, Final residual = 2.7563526e-006, No Iterations 0
DILUPBiCGStab:  Solving for Uy, Initial residual = 1.7923735e-006, Final residual = 1.7923735e-006, No Iterations 0
DILUPBiCGStab:  Solving for Uz, Initial residual = 2.2120464e-005, Final residual = 6.9439847e-007, No Iterations 1
DICPCG:  Solving for p, Initial residual = 0.00021114727, Final residual = 2.0876082e-006, No Iterations 33
time step continuity errors : sum local = 3.0275964e-009, global = 1.2692568e-009, cumulative = -5.4511091e-006
DILUPBiCGStab:  Solving for epsilon, Initial residual = 9.9859026e-006, Final residual = 9.9859026e-006, No Iterations 0
DILUPBiCGStab:  Solving for k, Initial residual = 3.1510026e-005, Final residual = 1.1691015e-007, No Iterations 1
ExecutionTime = 33670.062 s  ClockTime = 33670 s

Time = 4010

DILUPBiCGStab:  Solving for Ux, Initial residual = 2.7621036e-006, Final residual = 2.7621036e-006, No Iterations 0
DILUPBiCGStab:  Solving for Uy, Initial residual = 1.796245e-006, Final residual = 1.796245e-006, No Iterations 0
DILUPBiCGStab:  Solving for Uz, Initial residual = 2.2225265e-005, Final residual = 6.9576e-007, No Iterations 1
DICPCG:  Solving for p, Initial residual = 0.00021747842, Final residual = 2.1592863e-006, No Iterations 88
time step continuity errors : sum local = 3.1315218e-009, global = 2.3384642e-010, cumulative = -5.4508752e-006
DILUPBiCGStab:  Solving for epsilon, Initial residual = 1.0061765e-005, Final residual = 2.9264867e-008, No Iterations 1
DILUPBiCGStab:  Solving for k, Initial residual = 3.1344891e-005, Final residual = 1.1572492e-007, No Iterations 1
ExecutionTime = 33684.996 s  ClockTime = 33685 s

Time = 4011

DILUPBiCGStab:  Solving for Ux, Initial residual = 2.7713005e-006, Final residual = 2.7713005e-006, No Iterations 0
DILUPBiCGStab:  Solving for Uy, Initial residual = 1.798075e-006, Final residual = 1.798075e-006, No Iterations 0
DILUPBiCGStab:  Solving for Uz, Initial residual = 2.2279606e-005, Final residual = 6.9029156e-007, No Iterations 1
DICPCG:  Solving for p, Initial residual = 0.0001999807, Final residual = 1.9608501e-006, No Iterations 31
time step continuity errors : sum local = 2.8436538e-009, global = 1.1737655e-009, cumulative = -5.4497015e-006
DILUPBiCGStab:  Solving for epsilon, Initial residual = 9.7463396e-006, Final residual = 9.7463396e-006, No Iterations 0
DILUPBiCGStab:  Solving for k, Initial residual = 3.1194271e-005, Final residual = 1.1449442e-007, No Iterations 1
ExecutionTime = 33693.71 s  ClockTime = 33694 s

Time = 4012

DILUPBiCGStab:  Solving for Ux, Initial residual = 2.7729357e-006, Final residual = 2.7729357e-006, No Iterations 0
DILUPBiCGStab:  Solving for Uy, Initial residual = 1.799234e-006, Final residual = 1.799234e-006, No Iterations 0
DILUPBiCGStab:  Solving for Uz, Initial residual = 2.2205128e-005, Final residual = 6.8758535e-007, No Iterations 1
DICPCG:  Solving for p, Initial residual = 0.00019973049, Final residual = 1.9918418e-006, No Iterations 31
time step continuity errors : sum local = 2.8885639e-009, global = 1.1931454e-009, cumulative = -5.4485083e-006
DILUPBiCGStab:  Solving for epsilon, Initial residual = 9.8207256e-006, Final residual = 9.8207256e-006, No Iterations 0
DILUPBiCGStab:  Solving for k, Initial residual = 3.1313467e-005, Final residual = 1.1496823e-007, No Iterations 1
ExecutionTime = 33701.104 s  ClockTime = 33702 s

Time = 4013

DILUPBiCGStab:  Solving for Ux, Initial residual = 2.7758457e-006, Final residual = 2.7758457e-006, No Iterations 0
DILUPBiCGStab:  Solving for Uy, Initial residual = 1.8017465e-006, Final residual = 1.8017465e-006, No Iterations 0
DILUPBiCGStab:  Solving for Uz, Initial residual = 2.2154748e-005, Final residual = 6.8787411e-007, No Iterations 1
DICPCG:  Solving for p, Initial residual = 0.00020232123, Final residual = 1.9730435e-006, No Iterations 33
time step continuity errors : sum local = 2.8612693e-009, global = 1.2034102e-009, cumulative = -5.4473049e-006
DILUPBiCGStab:  Solving for epsilon, Initial residual = 9.8955099e-006, Final residual = 9.8955099e-006, No Iterations 0
DILUPBiCGStab:  Solving for k, Initial residual = 3.1434115e-005, Final residual = 1.1544559e-007, No Iterations 1
ExecutionTime = 33709.759 s  ClockTime = 33710 s

Time = 4014

DILUPBiCGStab:  Solving for Ux, Initial residual = 2.7804814e-006, Final residual = 2.7804814e-006, No Iterations 0
DILUPBiCGStab:  Solving for Uy, Initial residual = 1.8052861e-006, Final residual = 1.8052861e-006, No Iterations 0
DILUPBiCGStab:  Solving for Uz, Initial residual = 2.2183751e-005, Final residual = 6.9157962e-007, No Iterations 1
DICPCG:  Solving for p, Initial residual = 0.00020618209, Final residual = 2.0298668e-006, No Iterations 85
time step continuity errors : sum local = 2.943643e-009, global = 1.6367433e-010, cumulative = -5.4471412e-006
DILUPBiCGStab:  Solving for epsilon, Initial residual = 9.9708365e-006, Final residual = 9.9708365e-006, No Iterations 0
DILUPBiCGStab:  Solving for k, Initial residual = 3.1556306e-005, Final residual = 1.1592927e-007, No Iterations 1
ExecutionTime = 33723.871 s  ClockTime = 33724 s

Time = 4015

DILUPBiCGStab:  Solving for Ux, Initial residual = 2.8087062e-006, Final residual = 2.8087062e-006, No Iterations 0
DILUPBiCGStab:  Solving for Uy, Initial residual = 1.8191417e-006, Final residual = 1.8191417e-006, No Iterations 0
DILUPBiCGStab:  Solving for Uz, Initial residual = 2.2276777e-005, Final residual = 6.9829055e-007, No Iterations 1
DICPCG:  Solving for p, Initial residual = 0.00021235744, Final residual = 2.1233581e-006, No Iterations 26
time step continuity errors : sum local = 3.0790941e-009, global = 1.2120625e-009, cumulative = -5.4459292e-006
DILUPBiCGStab:  Solving for epsilon, Initial residual = 1.0046706e-005, Final residual = 2.9374841e-008, No Iterations 1
DILUPBiCGStab:  Solving for k, Initial residual = 3.1394027e-005, Final residual = 1.147808e-007, No Iterations 1
ExecutionTime = 33732.446 s  ClockTime = 33733 s

Time = 4016

DILUPBiCGStab:  Solving for Ux, Initial residual = 2.7907489e-006, Final residual = 2.7907489e-006, No Iterations 0
DILUPBiCGStab:  Solving for Uy, Initial residual = 1.8096634e-006, Final residual = 1.8096634e-006, No Iterations 0
DILUPBiCGStab:  Solving for Uz, Initial residual = 2.2218703e-005, Final residual = 6.8985179e-007, No Iterations 1
DICPCG:  Solving for p, Initial residual = 0.00019704554, Final residual = 1.948755e-006, No Iterations 30
time step continuity errors : sum local = 2.8259185e-009, global = 1.1317426e-009, cumulative = -5.4447974e-006
DILUPBiCGStab:  Solving for epsilon, Initial residual = 9.7310932e-006, Final residual = 9.7310932e-006, No Iterations 0
DILUPBiCGStab:  Solving for k, Initial residual = 3.1247602e-005, Final residual = 1.135949e-007, No Iterations 1
ExecutionTime = 33739.818 s  ClockTime = 33740 s

Time = 4017

DILUPBiCGStab:  Solving for Ux, Initial residual = 2.7922703e-006, Final residual = 2.7922703e-006, No Iterations 0
DILUPBiCGStab:  Solving for Uy, Initial residual = 1.8107815e-006, Final residual = 1.8107815e-006, No Iterations 0
DILUPBiCGStab:  Solving for Uz, Initial residual = 2.2163659e-005, Final residual = 6.8935709e-007, No Iterations 1
DICPCG:  Solving for p, Initial residual = 0.00019747006, Final residual = 1.9451479e-006, No Iterations 32
time step continuity errors : sum local = 2.8206509e-009, global = 1.1751736e-009, cumulative = -5.4436223e-006
DILUPBiCGStab:  Solving for epsilon, Initial residual = 9.8053732e-006, Final residual = 9.8053732e-006, No Iterations 0
DILUPBiCGStab:  Solving for k, Initial residual = 3.1367456e-005, Final residual = 1.140584e-007, No Iterations 1
ExecutionTime = 33748.029 s  ClockTime = 33748 s

Time = 4018

DILUPBiCGStab:  Solving for Ux, Initial residual = 2.7960973e-006, Final residual = 2.7960973e-006, No Iterations 0
DILUPBiCGStab:  Solving for Uy, Initial residual = 1.8135664e-006, Final residual = 1.8135664e-006, No Iterations 0
DILUPBiCGStab:  Solving for Uz, Initial residual = 2.2163804e-005, Final residual = 6.9176015e-007, No Iterations 1
DICPCG:  Solving for p, Initial residual = 0.00020041051, Final residual = 2.0007984e-006, No Iterations 85
time step continuity errors : sum local = 2.901316e-009, global = 1.7757859e-010, cumulative = -5.4434447e-006
DILUPBiCGStab:  Solving for epsilon, Initial residual = 9.8801703e-006, Final residual = 9.8801703e-006, No Iterations 0
DILUPBiCGStab:  Solving for k, Initial residual = 3.1489001e-005, Final residual = 1.1452953e-007, No Iterations 1
ExecutionTime = 33760.544 s  ClockTime = 33761 s

Time = 4019

DILUPBiCGStab:  Solving for Ux, Initial residual = 2.8225502e-006, Final residual = 2.8225502e-006, No Iterations 0
DILUPBiCGStab:  Solving for Uy, Initial residual = 1.8265026e-006, Final residual = 1.8265026e-006, No Iterations 0
DILUPBiCGStab:  Solving for Uz, Initial residual = 2.2226312e-005, Final residual = 6.9704079e-007, No Iterations 1
DICPCG:  Solving for p, Initial residual = 0.00020590306, Final residual = 2.0495403e-006, No Iterations 27
time step continuity errors : sum local = 2.9718766e-009, global = 1.180109e-009, cumulative = -5.4422646e-006
DILUPBiCGStab:  Solving for epsilon, Initial residual = 9.9555125e-006, Final residual = 9.9555125e-006, No Iterations 0
DILUPBiCGStab:  Solving for k, Initial residual = 3.1612029e-005, Final residual = 1.1500731e-007, No Iterations 1
ExecutionTime = 33768.311 s  ClockTime = 33769 s

Time = 4020

DILUPBiCGStab:  Solving for Ux, Initial residual = 2.8245675e-006, Final residual = 2.8245675e-006, No Iterations 0
DILUPBiCGStab:  Solving for Uy, Initial residual = 1.8290019e-006, Final residual = 1.8290019e-006, No Iterations 0
DILUPBiCGStab:  Solving for Uz, Initial residual = 2.2278569e-005, Final residual = 6.9680946e-007, No Iterations 1
DICPCG:  Solving for p, Initial residual = 0.00021211445, Final residual = 2.0729786e-006, No Iterations 27
time step continuity errors : sum local = 3.0058374e-009, global = 1.2243038e-009, cumulative = -5.4410403e-006
DILUPBiCGStab:  Solving for epsilon, Initial residual = 1.0031494e-005, Final residual = 2.9474187e-008, No Iterations 1
DILUPBiCGStab:  Solving for k, Initial residual = 3.1454327e-005, Final residual = 1.1393114e-007, No Iterations 1
ExecutionTime = 33775.591 s  ClockTime = 33776 s

Time = 4021

DILUPBiCGStab:  Solving for Ux, Initial residual = 2.8080339e-006, Final residual = 2.8080339e-006, No Iterations 0
DILUPBiCGStab:  Solving for Uy, Initial residual = 1.8201519e-006, Final residual = 1.8201519e-006, No Iterations 0
DILUPBiCGStab:  Solving for Uz, Initial residual = 2.2258936e-005, Final residual = 6.8797244e-007, No Iterations 1
DICPCG:  Solving for p, Initial residual = 0.00019708149, Final residual = 1.9435655e-006, No Iterations 36
time step continuity errors : sum local = 2.8182011e-009, global = 1.0521602e-009, cumulative = -5.4399881e-006
DILUPBiCGStab:  Solving for epsilon, Initial residual = 9.7158552e-006, Final residual = 9.7158552e-006, No Iterations 0
DILUPBiCGStab:  Solving for k, Initial residual = 3.1313185e-005, Final residual = 1.1281203e-007, No Iterations 1
ExecutionTime = 33783.226 s  ClockTime = 33784 s

Time = 4022

DILUPBiCGStab:  Solving for Ux, Initial residual = 2.8123161e-006, Final residual = 2.8123161e-006, No Iterations 0
DILUPBiCGStab:  Solving for Uy, Initial residual = 1.8223193e-006, Final residual = 1.8223193e-006, No Iterations 0
DILUPBiCGStab:  Solving for Uz, Initial residual = 2.2217689e-005, Final residual = 6.8630625e-007, No Iterations 1
DICPCG:  Solving for p, Initial residual = 0.00019752049, Final residual = 1.9526859e-006, No Iterations 89
time step continuity errors : sum local = 2.8313841e-009, global = 2.1428023e-010, cumulative = -5.4397738e-006
DILUPBiCGStab:  Solving for epsilon, Initial residual = 9.790267e-006, Final residual = 9.790267e-006, No Iterations 0
DILUPBiCGStab:  Solving for k, Initial residual = 3.1434482e-005, Final residual = 1.1326994e-007, No Iterations 1
ExecutionTime = 33798.622 s  ClockTime = 33799 s

Time = 4023

DILUPBiCGStab:  Solving for Ux, Initial residual = 2.8392213e-006, Final residual = 2.8392213e-006, No Iterations 0
DILUPBiCGStab:  Solving for Uy, Initial residual = 1.83519e-006, Final residual = 1.83519e-006, No Iterations 0
DILUPBiCGStab:  Solving for Uz, Initial residual = 2.2226492e-005, Final residual = 6.8965356e-007, No Iterations 1
DICPCG:  Solving for p, Initial residual = 0.0002009893, Final residual = 1.9102086e-006, No Iterations 30
time step continuity errors : sum local = 2.7696698e-009, global = 1.1241746e-009, cumulative = -5.4386497e-006
DILUPBiCGStab:  Solving for epsilon, Initial residual = 9.8651142e-006, Final residual = 9.8651142e-006, No Iterations 0
DILUPBiCGStab:  Solving for k, Initial residual = 3.1557216e-005, Final residual = 1.137338e-007, No Iterations 1
ExecutionTime = 33806.353 s  ClockTime = 33807 s

Time = 4024

DILUPBiCGStab:  Solving for Ux, Initial residual = 2.8414433e-006, Final residual = 2.8414433e-006, No Iterations 0
DILUPBiCGStab:  Solving for Uy, Initial residual = 1.8376747e-006, Final residual = 1.8376747e-006, No Iterations 0
DILUPBiCGStab:  Solving for Uz, Initial residual = 2.226382e-005, Final residual = 6.9204072e-007, No Iterations 1
DICPCG:  Solving for p, Initial residual = 0.00020539177, Final residual = 1.9984804e-006, No Iterations 29
time step continuity errors : sum local = 2.8976279e-009, global = 1.1847755e-009, cumulative = -5.4374649e-006
DILUPBiCGStab:  Solving for epsilon, Initial residual = 9.9404838e-006, Final residual = 9.9404838e-006, No Iterations 0
DILUPBiCGStab:  Solving for k, Initial residual = 3.168137e-005, Final residual = 1.1420271e-007, No Iterations 1
ExecutionTime = 33812.924 s  ClockTime = 33813 s

Time = 4025

DILUPBiCGStab:  Solving for Ux, Initial residual = 2.843951e-006, Final residual = 2.843951e-006, No Iterations 0
DILUPBiCGStab:  Solving for Uy, Initial residual = 1.8403352e-006, Final residual = 1.8403352e-006, No Iterations 0
DILUPBiCGStab:  Solving for Uz, Initial residual = 2.2343737e-005, Final residual = 6.9400002e-007, No Iterations 1
DICPCG:  Solving for p, Initial residual = 0.00021160433, Final residual = 2.1070485e-006, No Iterations 29
time step continuity errors : sum local = 3.0550116e-009, global = 1.2939654e-009, cumulative = -5.4361709e-006
DILUPBiCGStab:  Solving for epsilon, Initial residual = 1.0016516e-005, Final residual = 2.9559811e-008, No Iterations 1
DILUPBiCGStab:  Solving for k, Initial residual = 3.1526348e-005, Final residual = 1.1314621e-007, No Iterations 1
ExecutionTime = 33820.366 s  ClockTime = 33821 s

Time = 4026

DILUPBiCGStab:  Solving for Ux, Initial residual = 2.8283932e-006, Final residual = 2.8283932e-006, No Iterations 0
DILUPBiCGStab:  Solving for Uy, Initial residual = 1.8317969e-006, Final residual = 1.8317969e-006, No Iterations 0
DILUPBiCGStab:  Solving for Uz, Initial residual = 2.2333516e-005, Final residual = 6.8831082e-007, No Iterations 1
DICPCG:  Solving for p, Initial residual = 0.00019625655, Final residual = 1.9558714e-006, No Iterations 89
time step continuity errors : sum local = 2.8358348e-009, global = 2.0894489e-010, cumulative = -5.435962e-006
DILUPBiCGStab:  Solving for epsilon, Initial residual = 9.700442e-006, Final residual = 9.700442e-006, No Iterations 0
DILUPBiCGStab:  Solving for k, Initial residual = 3.1389204e-005, Final residual = 1.1207741e-007, No Iterations 1
ExecutionTime = 33834.771 s  ClockTime = 33835 s

Time = 4027

DILUPBiCGStab:  Solving for Ux, Initial residual = 2.8543116e-006, Final residual = 2.8543116e-006, No Iterations 0
DILUPBiCGStab:  Solving for Uy, Initial residual = 1.8435983e-006, Final residual = 1.8435983e-006, No Iterations 0
DILUPBiCGStab:  Solving for Uz, Initial residual = 2.2310664e-005, Final residual = 6.890023e-007, No Iterations 1
DICPCG:  Solving for p, Initial residual = 0.00019716708, Final residual = 1.9043147e-006, No Iterations 31
time step continuity errors : sum local = 2.7609552e-009, global = 1.1022581e-009, cumulative = -5.4348597e-006
DILUPBiCGStab:  Solving for epsilon, Initial residual = 9.7748808e-006, Final residual = 9.7748808e-006, No Iterations 0
DILUPBiCGStab:  Solving for k, Initial residual = 3.1511565e-005, Final residual = 1.1253209e-007, No Iterations 1
ExecutionTime = 33842.049 s  ClockTime = 33842 s

Time = 4028

DILUPBiCGStab:  Solving for Ux, Initial residual = 2.8565458e-006, Final residual = 2.8565458e-006, No Iterations 0
DILUPBiCGStab:  Solving for Uy, Initial residual = 1.8457458e-006, Final residual = 1.8457458e-006, No Iterations 0
DILUPBiCGStab:  Solving for Uz, Initial residual = 2.2292788e-005, Final residual = 6.8921509e-007, No Iterations 1
DICPCG:  Solving for p, Initial residual = 0.00019991481, Final residual = 1.980334e-006, No Iterations 30
time step continuity errors : sum local = 2.8711365e-009, global = 1.158678e-009, cumulative = -5.433701e-006
DILUPBiCGStab:  Solving for epsilon, Initial residual = 9.8498544e-006, Final residual = 9.8498544e-006, No Iterations 0
DILUPBiCGStab:  Solving for k, Initial residual = 3.1635277e-005, Final residual = 1.1299134e-007, No Iterations 1
ExecutionTime = 33850.033 s  ClockTime = 33850 s

Time = 4029

DILUPBiCGStab:  Solving for Ux, Initial residual = 2.8592654e-006, Final residual = 2.8592654e-006, No Iterations 0
DILUPBiCGStab:  Solving for Uy, Initial residual = 1.8485382e-006, Final residual = 1.8485382e-006, No Iterations 0
DILUPBiCGStab:  Solving for Uz, Initial residual = 2.2333251e-005, Final residual = 6.9036653e-007, No Iterations 1
DICPCG:  Solving for p, Initial residual = 0.00020487712, Final residual = 1.9983603e-006, No Iterations 31
time step continuity errors : sum local = 2.8972383e-009, global = 1.2260394e-009, cumulative = -5.432475e-006
DILUPBiCGStab:  Solving for epsilon, Initial residual = 9.925447e-006, Final residual = 9.925447e-006, No Iterations 0
DILUPBiCGStab:  Solving for k, Initial residual = 3.1760503e-005, Final residual = 1.1345489e-007, No Iterations 1
ExecutionTime = 33857.618 s  ClockTime = 33858 s

Time = 4030

DILUPBiCGStab:  Solving for Ux, Initial residual = 2.8629916e-006, Final residual = 2.8629916e-006, No Iterations 0
DILUPBiCGStab:  Solving for Uy, Initial residual = 1.85175e-006, Final residual = 1.85175e-006, No Iterations 0
DILUPBiCGStab:  Solving for Uz, Initial residual = 2.2410853e-005, Final residual = 6.9181266e-007, No Iterations 1
DICPCG:  Solving for p, Initial residual = 0.00021122772, Final residual = 2.1017417e-006, No Iterations 83
time step continuity errors : sum local = 3.0470909e-009, global = 1.9405533e-010, cumulative = -5.4322809e-006
DILUPBiCGStab:  Solving for epsilon, Initial residual = 1.0001782e-005, Final residual = 2.9623086e-008, No Iterations 1
DILUPBiCGStab:  Solving for k, Initial residual = 3.1608525e-005, Final residual = 1.1243442e-007, No Iterations 1
ExecutionTime = 33870.431 s  ClockTime = 33871 s

Time = 4031

DILUPBiCGStab:  Solving for Ux, Initial residual = 2.8702044e-006, Final residual = 2.8702044e-006, No Iterations 0
DILUPBiCGStab:  Solving for Uy, Initial residual = 1.853097e-006, Final residual = 1.853097e-006, No Iterations 0
DILUPBiCGStab:  Solving for Uz, Initial residual = 2.243029e-005, Final residual = 6.9007366e-007, No Iterations 1
DICPCG:  Solving for p, Initial residual = 0.00019674728, Final residual = 1.9163441e-006, No Iterations 30
time step continuity errors : sum local = 2.7782358e-009, global = 1.1300297e-009, cumulative = -5.4311509e-006
DILUPBiCGStab:  Solving for epsilon, Initial residual = 9.6853008e-006, Final residual = 9.6853008e-006, No Iterations 0
DILUPBiCGStab:  Solving for k, Initial residual = 3.1475279e-005, Final residual = 1.1138547e-007, No Iterations 1
ExecutionTime = 33877.921 s  ClockTime = 33878 s
