/*---------------------------------------------------------------------------*\
| =========                 |                                                 |
| \\      /  F ield         | OpenFOAM: The Open Source CFD Toolbox           |
|  \\    /   O peration     | Version:  5.x                                   |
|   \\  /    A nd           | Web:      www.OpenFOAM.org                      |
|    \\/     M anipulation  |                                                 |
\*---------------------------------------------------------------------------*/
/*   Windows 32 and 64 bit porting by blueCAPE: http://www.bluecape.com.pt   *\
|  Based on Windows porting (2.0.x v4) by Symscape: http://www.symscape.com   |
\*---------------------------------------------------------------------------*/
Build  : 5.x-963176928289
Exec   : decomposePar -force
Date   : Feb 24 2022
Time   : 14:54:11
Host   : "DESKTOP-6ISUCKQ"
PID    : 23376
I/O    : uncollated
Case   : E:/CFD_GAN_Generative_Box/12_Case_Type_Slab_NS_Height_30_Dist_20_dir_0/0
nProcs : 1
SigFpe : Enabling floating point exception trapping (FOAM_SIGFPE).
fileModificationChecking : Monitoring run-time modified files using timeStampMaster (fileModificationSkew 10)
allowSystemOperations : Allowing user-supplied system call operations

// * * * * * * * * * * * * * * * * * * * * * * * * * * * * * * * * * * * * * //
Create time



Decomposing mesh region0

Create mesh

Calculating distribution of cells
Selecting decompositionMethod scotch

Finished decomposition in 7.273 s

Calculating original mesh data

Distributing cells to processors

Distributing faces to processors

Distributing points to processors

Constructing processor meshes

Processor 0
    Number of cells = 89575
    Number of faces shared with processor 1 = 1195
    Number of faces shared with processor 2 = 6
    Number of faces shared with processor 5 = 1031
    Number of faces shared with processor 10 = 108
    Number of faces shared with processor 13 = 989
    Number of processor patches = 5
    Number of processor faces = 3329
    Number of boundary faces = 39813

Processor 1
    Number of cells = 90886
    Number of faces shared with processor 0 = 1195
    Number of faces shared with processor 2 = 1819
    Number of faces shared with processor 4 = 69
    Number of faces shared with processor 5 = 34
    Number of faces shared with processor 10 = 875
    Number of faces shared with processor 11 = 334
    Number of faces shared with processor 13 = 4
    Number of processor patches = 7
    Number of processor faces = 4330
    Number of boundary faces = 41478

Processor 2
    Number of cells = 89222
    Number of faces shared with processor 0 = 6
    Number of faces shared with processor 1 = 1819
    Number of faces shared with processor 4 = 501
    Number of faces shared with processor 5 = 3
    Number of faces shared with processor 11 = 507
    Number of processor patches = 5
    Number of processor faces = 2836
    Number of boundary faces = 40023

Processor 3
    Number of cells = 89377
    Number of faces shared with processor 4 = 1092
    Number of faces shared with processor 6 = 1207
    Number of processor patches = 2
    Number of processor faces = 2299
    Number of boundary faces = 39074

Processor 4
    Number of cells = 90027
    Number of faces shared with processor 1 = 69
    Number of faces shared with processor 2 = 501
    Number of faces shared with processor 3 = 1092
    Number of faces shared with processor 5 = 407
    Number of faces shared with processor 6 = 479
    Number of processor patches = 5
    Number of processor faces = 2548
    Number of boundary faces = 39407

Processor 5
    Number of cells = 90858
    Number of faces shared with processor 0 = 1031
    Number of faces shared with processor 1 = 34
    Number of faces shared with processor 2 = 3
    Number of faces shared with processor 4 = 407
    Number of faces shared with processor 6 = 1058
    Number of faces shared with processor 12 = 291
    Number of faces shared with processor 13 = 494
    Number of processor patches = 7
    Number of processor faces = 3318
    Number of boundary faces = 39092

Processor 6
    Number of cells = 89329
    Number of faces shared with processor 3 = 1207
    Number of faces shared with processor 4 = 479
    Number of faces shared with processor 5 = 1058
    Number of processor patches = 3
    Number of processor faces = 2744
    Number of boundary faces = 38526

Processor 7
    Number of cells = 89682
    Number of faces shared with processor 8 = 161
    Number of faces shared with processor 9 = 1157
    Number of faces shared with processor 11 = 799
    Number of processor patches = 3
    Number of processor faces = 2117
    Number of boundary faces = 39159

Processor 8
    Number of cells = 90800
    Number of faces shared with processor 7 = 161
    Number of faces shared with processor 9 = 1480
    Number of faces shared with processor 11 = 279
    Number of faces shared with processor 12 = 824
    Number of processor patches = 4
    Number of processor faces = 2744
    Number of boundary faces = 39814

Processor 9
    Number of cells = 89472
    Number of faces shared with processor 7 = 1157
    Number of faces shared with processor 8 = 1480
    Number of processor patches = 2
    Number of processor faces = 2637
    Number of boundary faces = 38424

Processor 10
    Number of cells = 90613
    Number of faces shared with processor 0 = 108
    Number of faces shared with processor 1 = 875
    Number of faces shared with processor 11 = 1106
    Number of faces shared with processor 12 = 415
    Number of faces shared with processor 13 = 880
    Number of processor patches = 5
    Number of processor faces = 3384
    Number of boundary faces = 40520

Processor 11
    Number of cells = 89960
    Number of faces shared with processor 1 = 334
    Number of faces shared with processor 2 = 507
    Number of faces shared with processor 7 = 799
    Number of faces shared with processor 8 = 279
    Number of faces shared with processor 10 = 1106
    Number of faces shared with processor 12 = 133
    Number of processor patches = 6
    Number of processor faces = 3158
    Number of boundary faces = 39485

Processor 12
    Number of cells = 90986
    Number of faces shared with processor 5 = 291
    Number of faces shared with processor 8 = 824
    Number of faces shared with processor 10 = 415
    Number of faces shared with processor 11 = 133
    Number of faces shared with processor 13 = 1308
    Number of processor patches = 5
    Number of processor faces = 2971
    Number of boundary faces = 39774

Processor 13
    Number of cells = 90737
    Number of faces shared with processor 0 = 989
    Number of faces shared with processor 1 = 4
    Number of faces shared with processor 5 = 494
    Number of faces shared with processor 10 = 880
    Number of faces shared with processor 12 = 1308
    Number of processor patches = 5
    Number of processor faces = 3675
    Number of boundary faces = 40746

Number of processor faces = 21045
Max number of cells = 90986 (0.97342579% above average 90108.857)
Max number of processor patches = 7 (53.125% above average 4.5714286)
Max number of faces between processors = 4330 (44.024709% above average 3006.4286)

Time = 0

Processor 0: field transfer
Processor 1: field transfer
Processor 2: field transfer
Processor 3: field transfer
Processor 4: field transfer
Processor 5: field transfer
Processor 6: field transfer
Processor 7: field transfer
Processor 8: field transfer
Processor 9: field transfer
Processor 10: field transfer
Processor 11: field transfer
Processor 12: field transfer
Processor 13: field transfer

End

/*---------------------------------------------------------------------------*\
| =========                 |                                                 |
| \\      /  F ield         | OpenFOAM: The Open Source CFD Toolbox           |
|  \\    /   O peration     | Version:  5.x                                   |
|   \\  /    A nd           | Web:      www.OpenFOAM.org                      |
|    \\/     M anipulation  |                                                 |
\*---------------------------------------------------------------------------*/
/*   Windows 32 and 64 bit porting by blueCAPE: http://www.bluecape.com.pt   *\
|  Based on Windows porting (2.0.x v4) by Symscape: http://www.symscape.com   |
\*---------------------------------------------------------------------------*/
Build  : 5.x-963176928289
Exec   : simpleFoam -parallel
Date   : Feb 24 2022
Time   : 14:54:27
Host   : "DESKTOP-6ISUCKQ"
PID    : 29516
I/O    : uncollated
Case   : E:/CFD_GAN_Generative_Box/12_Case_Type_Slab_NS_Height_30_Dist_20_dir_0/0
nProcs : 14
Slaves : 
13
(
"DESKTOP-6ISUCKQ.30468"
"DESKTOP-6ISUCKQ.26552"
"DESKTOP-6ISUCKQ.13228"
"DESKTOP-6ISUCKQ.4560"
"DESKTOP-6ISUCKQ.25988"
"DESKTOP-6ISUCKQ.20204"
"DESKTOP-6ISUCKQ.27412"
"DESKTOP-6ISUCKQ.30512"
"DESKTOP-6ISUCKQ.30548"
"DESKTOP-6ISUCKQ.23312"
"DESKTOP-6ISUCKQ.28340"
"DESKTOP-6ISUCKQ.25092"
"DESKTOP-6ISUCKQ.24416"
)

Pstream initialized with:
    floatTransfer      : 0
    nProcsSimpleSum    : 0
    commsType          : nonBlocking
    polling iterations : 0
SigFpe : Enabling floating point exception trapping (FOAM_SIGFPE).
fileModificationChecking : Monitoring run-time modified files using timeStampMaster (fileModificationSkew 10)
allowSystemOperations : Allowing user-supplied system call operations

// * * * * * * * * * * * * * * * * * * * * * * * * * * * * * * * * * * * * * //
Create time

Create mesh for time = 0


SIMPLE: convergence criteria
    field p	 tolerance 1e-005
    field U	 tolerance 0.0001

Reading field p

Reading field U

Reading/calculating face flux field phi

Selecting incompressible transport model Newtonian
Selecting turbulence model type RAS
Selecting RAS turbulence model RNGkEpsilon
RAS
{
    RASModel        RNGkEpsilon;
    turbulence      on;
    printCoeffs     on;
    Cmu             0.0845;
    C1              1.42;
    C2              1.68;
    C3              0;
    sigmak          0.71942;
    sigmaEps        0.71942;
    eta0            4.38;
    beta            0.012;
}

No MRF models present

No finite volume options present


Starting time loop

Time = 1

DILUPBiCGStab:  Solving for Ux, Initial residual = 1, Final residual = 0.0047443442, No Iterations 1
DILUPBiCGStab:  Solving for Uy, Initial residual = 1, Final residual = 2.2503909e-008, No Iterations 1
DILUPBiCGStab:  Solving for Uz, Initial residual = 1, Final residual = 7.7822165e-005, No Iterations 1
DICPCG:  Solving for p, Initial residual = 1, Final residual = 0.0098136275, No Iterations 81
time step continuity errors : sum local = 7.1051866e-005, global = -6.1574255e-007, cumulative = -6.1574255e-007
DILUPBiCGStab:  Solving for epsilon, Initial residual = 0.13118258, Final residual = 2.5922677e-005, No Iterations 1
DILUPBiCGStab:  Solving for k, Initial residual = 1, Final residual = 0.00021718686, No Iterations 1
ExecutionTime = 4.693 s  ClockTime = 5 s

Time = 2

DILUPBiCGStab:  Solving for Ux, Initial residual = 0.046378864, Final residual = 0.00092540192, No Iterations 1
DILUPBiCGStab:  Solving for Uy, Initial residual = 0.021096073, Final residual = 0.00014133912, No Iterations 1
DILUPBiCGStab:  Solving for Uz, Initial residual = 0.17124806, Final residual = 0.0035530961, No Iterations 1
DICPCG:  Solving for p, Initial residual = 0.99904845, Final residual = 0.0098607942, No Iterations 438
time step continuity errors : sum local = 5.933396e-005, global = 3.7289818e-007, cumulative = -2.4284437e-007
DILUPBiCGStab:  Solving for epsilon, Initial residual = 0.12471575, Final residual = 2.0654666e-005, No Iterations 1
DILUPBiCGStab:  Solving for k, Initial residual = 0.65612534, Final residual = 0.0001421908, No Iterations 1
ExecutionTime = 14.574 s  ClockTime = 15 s

Time = 3

DILUPBiCGStab:  Solving for Ux, Initial residual = 0.055920944, Final residual = 0.0014552925, No Iterations 1
DILUPBiCGStab:  Solving for Uy, Initial residual = 0.080093155, Final residual = 0.0025310911, No Iterations 1
DILUPBiCGStab:  Solving for Uz, Initial residual = 0.22358792, Final residual = 0.0048287733, No Iterations 1
DICPCG:  Solving for p, Initial residual = 0.069766322, Final residual = 0.0006966857, No Iterations 83
time step continuity errors : sum local = 0.00011128668, global = 1.3037709e-006, cumulative = 1.0609265e-006
DILUPBiCGStab:  Solving for epsilon, Initial residual = 0.135799, Final residual = 2.5743733e-005, No Iterations 1
DILUPBiCGStab:  Solving for k, Initial residual = 0.31125272, Final residual = 7.1641496e-005, No Iterations 1
ExecutionTime = 18.022 s  ClockTime = 18 s

Time = 4

DILUPBiCGStab:  Solving for Ux, Initial residual = 0.091041602, Final residual = 0.0023877154, No Iterations 1
DILUPBiCGStab:  Solving for Uy, Initial residual = 0.28177411, Final residual = 0.0094408747, No Iterations 1
DILUPBiCGStab:  Solving for Uz, Initial residual = 0.19498011, Final residual = 0.0039441539, No Iterations 1
DICPCG:  Solving for p, Initial residual = 0.051588659, Final residual = 0.00050487657, No Iterations 103
time step continuity errors : sum local = 0.00010586907, global = -2.3314159e-008, cumulative = 1.0376124e-006
DILUPBiCGStab:  Solving for epsilon, Initial residual = 0.13914181, Final residual = 2.6414224e-005, No Iterations 1
DILUPBiCGStab:  Solving for k, Initial residual = 0.17874488, Final residual = 4.2477849e-005, No Iterations 1
ExecutionTime = 21.965 s  ClockTime = 22 s

Time = 5

DILUPBiCGStab:  Solving for Ux, Initial residual = 0.077570121, Final residual = 0.002117592, No Iterations 1
DILUPBiCGStab:  Solving for Uy, Initial residual = 0.24155721, Final residual = 0.0083371867, No Iterations 1
DILUPBiCGStab:  Solving for Uz, Initial residual = 0.12464804, Final residual = 0.0034438429, No Iterations 1
DICPCG:  Solving for p, Initial residual = 0.061601622, Final residual = 0.00057849151, No Iterations 107
time step continuity errors : sum local = 0.00010065583, global = 1.7262129e-006, cumulative = 2.7638253e-006
DILUPBiCGStab:  Solving for epsilon, Initial residual = 0.142926, Final residual = 2.7325642e-005, No Iterations 1
DILUPBiCGStab:  Solving for k, Initial residual = 0.11792013, Final residual = 2.8426326e-005, No Iterations 1
ExecutionTime = 25.669 s  ClockTime = 26 s

Time = 6

DILUPBiCGStab:  Solving for Ux, Initial residual = 0.049686124, Final residual = 0.0014299947, No Iterations 1
DILUPBiCGStab:  Solving for Uy, Initial residual = 0.099874998, Final residual = 0.003444428, No Iterations 1
DILUPBiCGStab:  Solving for Uz, Initial residual = 0.13032497, Final residual = 0.0028622165, No Iterations 1
DICPCG:  Solving for p, Initial residual = 0.10762605, Final residual = 0.0010311357, No Iterations 108
time step continuity errors : sum local = 8.4546202e-005, global = 1.8647009e-006, cumulative = 4.6285262e-006
DILUPBiCGStab:  Solving for epsilon, Initial residual = 0.14724532, Final residual = 2.8303575e-005, No Iterations 1
DILUPBiCGStab:  Solving for k, Initial residual = 0.084287723, Final residual = 2.0298496e-005, No Iterations 1
ExecutionTime = 29.594 s  ClockTime = 30 s

Time = 7

DILUPBiCGStab:  Solving for Ux, Initial residual = 0.031120972, Final residual = 0.00084568771, No Iterations 1
DILUPBiCGStab:  Solving for Uy, Initial residual = 0.042800926, Final residual = 0.001451243, No Iterations 1
DILUPBiCGStab:  Solving for Uz, Initial residual = 0.14671601, Final residual = 0.0031193489, No Iterations 1
DICPCG:  Solving for p, Initial residual = 0.24059139, Final residual = 0.0021707538, No Iterations 105
time step continuity errors : sum local = 8.0345742e-005, global = 1.9152571e-006, cumulative = 6.5437832e-006
DILUPBiCGStab:  Solving for epsilon, Initial residual = 0.15221504, Final residual = 2.9392951e-005, No Iterations 1
DILUPBiCGStab:  Solving for k, Initial residual = 0.063513526, Final residual = 1.5732893e-005, No Iterations 1
ExecutionTime = 33.602 s  ClockTime = 34 s

Time = 8

DILUPBiCGStab:  Solving for Ux, Initial residual = 0.035898436, Final residual = 0.00085238003, No Iterations 1
DILUPBiCGStab:  Solving for Uy, Initial residual = 0.13534044, Final residual = 0.0047674466, No Iterations 1
DILUPBiCGStab:  Solving for Uz, Initial residual = 0.12859863, Final residual = 0.0029284683, No Iterations 1
DICPCG:  Solving for p, Initial residual = 0.1000837, Final residual = 0.0009769773, No Iterations 69
time step continuity errors : sum local = 8.666255e-005, global = -1.5210126e-006, cumulative = 5.0227707e-006
DILUPBiCGStab:  Solving for epsilon, Initial residual = 0.15795801, Final residual = 3.063883e-005, No Iterations 1
DILUPBiCGStab:  Solving for k, Initial residual = 0.049597653, Final residual = 1.307475e-005, No Iterations 1
ExecutionTime = 36.655 s  ClockTime = 37 s

Time = 9

DILUPBiCGStab:  Solving for Ux, Initial residual = 0.047057067, Final residual = 0.0011285191, No Iterations 1
DILUPBiCGStab:  Solving for Uy, Initial residual = 0.13054863, Final residual = 0.0046473754, No Iterations 1
DILUPBiCGStab:  Solving for Uz, Initial residual = 0.093896142, Final residual = 0.0025672027, No Iterations 1
DICPCG:  Solving for p, Initial residual = 0.08215032, Final residual = 0.00071500248, No Iterations 103
time step continuity errors : sum local = 6.6257938e-005, global = -1.0301762e-006, cumulative = 3.9925945e-006
DILUPBiCGStab:  Solving for epsilon, Initial residual = 0.16462135, Final residual = 3.2094905e-005, No Iterations 1
DILUPBiCGStab:  Solving for k, Initial residual = 0.039674397, Final residual = 1.1286243e-005, No Iterations 1
ExecutionTime = 40.527 s  ClockTime = 41 s

Time = 10

DILUPBiCGStab:  Solving for Ux, Initial residual = 0.045465494, Final residual = 0.0011404688, No Iterations 1
DILUPBiCGStab:  Solving for Uy, Initial residual = 0.075209619, Final residual = 0.0026567308, No Iterations 1
DILUPBiCGStab:  Solving for Uz, Initial residual = 0.072353449, Final residual = 0.002344615, No Iterations 1
DICPCG:  Solving for p, Initial residual = 0.086500044, Final residual = 0.00076783143, No Iterations 107
time step continuity errors : sum local = 4.5945664e-005, global = -1.0386682e-006, cumulative = 2.9539263e-006
DILUPBiCGStab:  Solving for epsilon, Initial residual = 0.17253408, Final residual = 3.3803153e-005, No Iterations 1
DILUPBiCGStab:  Solving for k, Initial residual = 0.032332468, Final residual = 1.009442e-005, No Iterations 1
ExecutionTime = 44.535 s  ClockTime = 45 s

Time = 11

DILUPBiCGStab:  Solving for Ux, Initial residual = 0.034066763, Final residual = 0.00092721387, No Iterations 1
DILUPBiCGStab:  Solving for Uy, Initial residual = 0.014159073, Final residual = 0.00041901708, No Iterations 1
DILUPBiCGStab:  Solving for Uz, Initial residual = 0.072918144, Final residual = 0.0019439461, No Iterations 1
DICPCG:  Solving for p, Initial residual = 0.25847742, Final residual = 0.0024137261, No Iterations 107
time step continuity errors : sum local = 3.5656295e-005, global = -1.0007179e-006, cumulative = 1.9532084e-006
DILUPBiCGStab:  Solving for epsilon, Initial residual = 0.18213705, Final residual = 3.5854182e-005, No Iterations 1
DILUPBiCGStab:  Solving for k, Initial residual = 0.026706389, Final residual = 9.1425203e-006, No Iterations 1
ExecutionTime = 48.17 s  ClockTime = 48 s

Time = 12

DILUPBiCGStab:  Solving for Ux, Initial residual = 0.025463201, Final residual = 0.0007738947, No Iterations 1
DILUPBiCGStab:  Solving for Uy, Initial residual = 0.044116751, Final residual = 0.0016430671, No Iterations 1
DILUPBiCGStab:  Solving for Uz, Initial residual = 0.065714704, Final residual = 0.0015866749, No Iterations 1
DICPCG:  Solving for p, Initial residual = 0.11845411, Final residual = 0.00099020324, No Iterations 103
time step continuity errors : sum local = 3.223798e-005, global = -7.1993216e-007, cumulative = 1.2332762e-006
DILUPBiCGStab:  Solving for epsilon, Initial residual = 0.19406314, Final residual = 3.8390223e-005, No Iterations 1
DILUPBiCGStab:  Solving for k, Initial residual = 0.022273055, Final residual = 8.3088101e-006, No Iterations 1
ExecutionTime = 51.984 s  ClockTime = 52 s

Time = 13

DILUPBiCGStab:  Solving for Ux, Initial residual = 0.024530542, Final residual = 0.00080638595, No Iterations 1
DILUPBiCGStab:  Solving for Uy, Initial residual = 0.070151764, Final residual = 0.002589012, No Iterations 1
DILUPBiCGStab:  Solving for Uz, Initial residual = 0.047823698, Final residual = 0.0012079474, No Iterations 1
DICPCG:  Solving for p, Initial residual = 0.084098477, Final residual = 0.00083056002, No Iterations 98
time step continuity errors : sum local = 3.7006708e-005, global = -4.9906237e-008, cumulative = 1.18337e-006
DILUPBiCGStab:  Solving for epsilon, Initial residual = 0.20929646, Final residual = 4.1641131e-005, No Iterations 1
DILUPBiCGStab:  Solving for k, Initial residual = 0.018806587, Final residual = 7.610625e-006, No Iterations 1
ExecutionTime = 55.615 s  ClockTime = 56 s

Time = 14

DILUPBiCGStab:  Solving for Ux, Initial residual = 0.023738304, Final residual = 0.00081639546, No Iterations 1
DILUPBiCGStab:  Solving for Uy, Initial residual = 0.05889261, Final residual = 0.0021547232, No Iterations 1
DILUPBiCGStab:  Solving for Uz, Initial residual = 0.031867884, Final residual = 0.0010881989, No Iterations 1
DICPCG:  Solving for p, Initial residual = 0.081340602, Final residual = 0.00078526694, No Iterations 105
time step continuity errors : sum local = 2.8438693e-005, global = 7.315337e-007, cumulative = 1.9149037e-006
DILUPBiCGStab:  Solving for epsilon, Initial residual = 0.22951086, Final residual = 4.5952092e-005, No Iterations 1
DILUPBiCGStab:  Solving for k, Initial residual = 0.016062533, Final residual = 7.0127039e-006, No Iterations 1
ExecutionTime = 59.491 s  ClockTime = 60 s

Time = 15

DILUPBiCGStab:  Solving for Ux, Initial residual = 0.020680881, Final residual = 0.00074937638, No Iterations 1
DILUPBiCGStab:  Solving for Uy, Initial residual = 0.026247951, Final residual = 0.00092739239, No Iterations 1
DILUPBiCGStab:  Solving for Uz, Initial residual = 0.030910594, Final residual = 0.00098950114, No Iterations 1
DICPCG:  Solving for p, Initial residual = 0.11890783, Final residual = 0.0011137749, No Iterations 108
time step continuity errors : sum local = 1.9102924e-005, global = 5.2637275e-007, cumulative = 2.4412764e-006
DILUPBiCGStab:  Solving for epsilon, Initial residual = 0.25771479, Final residual = 5.1928309e-005, No Iterations 1
DILUPBiCGStab:  Solving for k, Initial residual = 0.013844032, Final residual = 6.5124803e-006, No Iterations 1
ExecutionTime = 63.105 s  ClockTime = 63 s

Time = 16

DILUPBiCGStab:  Solving for Ux, Initial residual = 0.018844194, Final residual = 0.00063357282, No Iterations 1
DILUPBiCGStab:  Solving for Uy, Initial residual = 0.01375361, Final residual = 0.00048255072, No Iterations 1
DILUPBiCGStab:  Solving for Uz, Initial residual = 0.033015578, Final residual = 0.00092473914, No Iterations 1
DICPCG:  Solving for p, Initial residual = 0.17722702, Final residual = 0.0017154176, No Iterations 106
time step continuity errors : sum local = 1.7720885e-005, global = 5.3046354e-007, cumulative = 2.97174e-006
DILUPBiCGStab:  Solving for epsilon, Initial residual = 0.29979594, Final residual = 6.0775453e-005, No Iterations 1
DILUPBiCGStab:  Solving for k, Initial residual = 0.012033896, Final residual = 6.0837438e-006, No Iterations 1
ExecutionTime = 66.94 s  ClockTime = 67 s

Time = 17

DILUPBiCGStab:  Solving for Ux, Initial residual = 0.020024667, Final residual = 0.00056668451, No Iterations 1
DILUPBiCGStab:  Solving for Uy, Initial residual = 0.031528441, Final residual = 0.0011694245, No Iterations 1
DILUPBiCGStab:  Solving for Uz, Initial residual = 0.030540165, Final residual = 0.00083115481, No Iterations 1
DICPCG:  Solving for p, Initial residual = 0.089821099, Final residual = 0.00086945882, No Iterations 77
time step continuity errors : sum local = 1.792926e-005, global = 9.3856665e-007, cumulative = 3.9103066e-006
DILUPBiCGStab:  Solving for epsilon, Initial residual = 0.36918878, Final residual = 7.5267128e-005, No Iterations 1
DILUPBiCGStab:  Solving for k, Initial residual = 0.010523361, Final residual = 5.7016271e-006, No Iterations 1
ExecutionTime = 70.356 s  ClockTime = 70 s

Time = 18

DILUPBiCGStab:  Solving for Ux, Initial residual = 0.021096907, Final residual = 0.00055564122, No Iterations 1
DILUPBiCGStab:  Solving for Uy, Initial residual = 0.032421073, Final residual = 0.0011905257, No Iterations 1
DILUPBiCGStab:  Solving for Uz, Initial residual = 0.024832125, Final residual = 0.000736382, No Iterations 1
DICPCG:  Solving for p, Initial residual = 0.078424232, Final residual = 0.00076203378, No Iterations 104
time step continuity errors : sum local = 1.5925164e-005, global = -5.8529706e-007, cumulative = 3.3250096e-006
DILUPBiCGStab:  Solving for epsilon, Initial residual = 0.50469675, Final residual = 0.00010344573, No Iterations 1
DILUPBiCGStab:  Solving for k, Initial residual = 0.0092473813, Final residual = 5.374516e-006, No Iterations 1
ExecutionTime = 73.891 s  ClockTime = 74 s

Time = 19

DILUPBiCGStab:  Solving for Ux, Initial residual = 0.020923927, Final residual = 0.00056495166, No Iterations 1
DILUPBiCGStab:  Solving for Uy, Initial residual = 0.020688877, Final residual = 0.00073751795, No Iterations 1
DILUPBiCGStab:  Solving for Uz, Initial residual = 0.020791402, Final residual = 0.0007627388, No Iterations 1
DICPCG:  Solving for p, Initial residual = 0.089282868, Final residual = 0.00088893812, No Iterations 107
time step continuity errors : sum local = 1.2351416e-005, global = -3.0178507e-007, cumulative = 3.0232245e-006
DILUPBiCGStab:  Solving for epsilon, Initial residual = 0.75731329, Final residual = 0.00015606775, No Iterations 1
DILUPBiCGStab:  Solving for k, Initial residual = 0.0081610031, Final residual = 5.0878158e-006, No Iterations 1
ExecutionTime = 77.633 s  ClockTime = 78 s

Time = 20

DILUPBiCGStab:  Solving for Ux, Initial residual = 0.019076737, Final residual = 0.00055523858, No Iterations 1
DILUPBiCGStab:  Solving for Uy, Initial residual = 0.0058695586, Final residual = 0.00017783325, No Iterations 1
DILUPBiCGStab:  Solving for Uz, Initial residual = 0.01942904, Final residual = 0.00073767121, No Iterations 1
DICPCG:  Solving for p, Initial residual = 0.2271246, Final residual = 0.0021738349, No Iterations 107
time step continuity errors : sum local = 1.0243961e-005, global = -2.2766965e-007, cumulative = 2.7955548e-006
DILUPBiCGStab:  Solving for epsilon, Initial residual = 0.79351192, Final residual = 0.00016447777, No Iterations 1
DILUPBiCGStab:  Solving for k, Initial residual = 0.0072553303, Final residual = 4.8429686e-006, No Iterations 1
ExecutionTime = 81.297 s  ClockTime = 81 s

Time = 21

DILUPBiCGStab:  Solving for Ux, Initial residual = 0.016907604, Final residual = 0.00054225861, No Iterations 1
DILUPBiCGStab:  Solving for Uy, Initial residual = 0.012931867, Final residual = 0.00051950911, No Iterations 1
DILUPBiCGStab:  Solving for Uz, Initial residual = 0.017479267, Final residual = 0.00063057753, No Iterations 1
DICPCG:  Solving for p, Initial residual = 0.12313496, Final residual = 0.0010830738, No Iterations 105
time step continuity errors : sum local = 9.3625703e-006, global = -2.8600564e-007, cumulative = 2.5095492e-006
DILUPBiCGStab:  Solving for epsilon, Initial residual = 0.60978896, Final residual = 0.0001272049, No Iterations 1
DILUPBiCGStab:  Solving for k, Initial residual = 0.0064951979, Final residual = 4.637955e-006, No Iterations 1
ExecutionTime = 84.953 s  ClockTime = 85 s

Time = 22

DILUPBiCGStab:  Solving for Ux, Initial residual = 0.015392759, Final residual = 0.00053508837, No Iterations 1
DILUPBiCGStab:  Solving for Uy, Initial residual = 0.017153944, Final residual = 0.00067474456, No Iterations 1
DILUPBiCGStab:  Solving for Uz, Initial residual = 0.01455552, Final residual = 0.00051701142, No Iterations 1
DICPCG:  Solving for p, Initial residual = 0.090275017, Final residual = 0.00087502204, No Iterations 87
time step continuity errors : sum local = 9.5312118e-006, global = -3.6460035e-007, cumulative = 2.1449488e-006
DILUPBiCGStab:  Solving for epsilon, Initial residual = 0.33591169, Final residual = 7.0537473e-005, No Iterations 1
DILUPBiCGStab:  Solving for k, Initial residual = 0.0058514595, Final residual = 4.4763986e-006, No Iterations 1
ExecutionTime = 88.246 s  ClockTime = 88 s

Time = 23

DILUPBiCGStab:  Solving for Ux, Initial residual = 0.01459741, Final residual = 0.00052565723, No Iterations 1
DILUPBiCGStab:  Solving for Uy, Initial residual = 0.014371516, Final residual = 0.00056081275, No Iterations 1
DILUPBiCGStab:  Solving for Uz, Initial residual = 0.013199447, Final residual = 0.00049234119, No Iterations 1
DICPCG:  Solving for p, Initial residual = 0.088939412, Final residual = 0.00081751185, No Iterations 105
time step continuity errors : sum local = 7.3916645e-006, global = 2.5064438e-007, cumulative = 2.3955932e-006
DILUPBiCGStab:  Solving for epsilon, Initial residual = 0.2155112, Final residual = 4.5528422e-005, No Iterations 1
DILUPBiCGStab:  Solving for k, Initial residual = 0.0052973944, Final residual = 4.3504538e-006, No Iterations 1
ExecutionTime = 91.894 s  ClockTime = 92 s

Time = 24

DILUPBiCGStab:  Solving for Ux, Initial residual = 0.014382006, Final residual = 0.0005036981, No Iterations 1
DILUPBiCGStab:  Solving for Uy, Initial residual = 0.007946214, Final residual = 0.00030754785, No Iterations 1
DILUPBiCGStab:  Solving for Uz, Initial residual = 0.013392274, Final residual = 0.00050033108, No Iterations 1
DICPCG:  Solving for p, Initial residual = 0.1377768, Final residual = 0.0011976724, No Iterations 107
time step continuity errors : sum local = 6.0675888e-006, global = 1.1211281e-007, cumulative = 2.507706e-006
DILUPBiCGStab:  Solving for epsilon, Initial residual = 0.15026934, Final residual = 3.1918705e-005, No Iterations 1
DILUPBiCGStab:  Solving for k, Initial residual = 0.0048184191, Final residual = 4.2612559e-006, No Iterations 1
ExecutionTime = 95.512 s  ClockTime = 96 s

Time = 25

DILUPBiCGStab:  Solving for Ux, Initial residual = 0.014587631, Final residual = 0.00047770059, No Iterations 1
DILUPBiCGStab:  Solving for Uy, Initial residual = 0.0057389064, Final residual = 0.00021205777, No Iterations 1
DILUPBiCGStab:  Solving for Uz, Initial residual = 0.013651659, Final residual = 0.00049114876, No Iterations 1
DICPCG:  Solving for p, Initial residual = 0.15072786, Final residual = 0.0014723405, No Iterations 105
time step continuity errors : sum local = 6.5525249e-006, global = 1.9491981e-007, cumulative = 2.7026259e-006
DILUPBiCGStab:  Solving for epsilon, Initial residual = 0.10954068, Final residual = 2.3381629e-005, No Iterations 1
DILUPBiCGStab:  Solving for k, Initial residual = 0.0043980655, Final residual = 4.2088954e-006, No Iterations 1
ExecutionTime = 99.148 s  ClockTime = 99 s

Time = 26

DILUPBiCGStab:  Solving for Ux, Initial residual = 0.015181255, Final residual = 0.00047035731, No Iterations 1
DILUPBiCGStab:  Solving for Uy, Initial residual = 0.0086565894, Final residual = 0.00032661112, No Iterations 1
DILUPBiCGStab:  Solving for Uz, Initial residual = 0.012816368, Final residual = 0.00045154119, No Iterations 1
DICPCG:  Solving for p, Initial residual = 0.099584734, Final residual = 0.00097568522, No Iterations 47
time step continuity errors : sum local = 6.3109661e-006, global = 1.2144255e-006, cumulative = 3.9170513e-006
DILUPBiCGStab:  Solving for epsilon, Initial residual = 0.082117695, Final residual = 1.7610301e-005, No Iterations 1
DILUPBiCGStab:  Solving for k, Initial residual = 0.0040354033, Final residual = 4.1941303e-006, No Iterations 1
ExecutionTime = 101.774 s  ClockTime = 102 s

Time = 27

DILUPBiCGStab:  Solving for Ux, Initial residual = 0.015621694, Final residual = 0.00047994086, No Iterations 1
DILUPBiCGStab:  Solving for Uy, Initial residual = 0.0087426021, Final residual = 0.00033004448, No Iterations 1
DILUPBiCGStab:  Solving for Uz, Initial residual = 0.01131086, Final residual = 0.0004123203, No Iterations 1
DICPCG:  Solving for p, Initial residual = 0.088546116, Final residual = 0.00087853402, No Iterations 100
time step continuity errors : sum local = 5.6322601e-006, global = 3.9307344e-008, cumulative = 3.9563587e-006
DILUPBiCGStab:  Solving for epsilon, Initial residual = 0.062853817, Final residual = 1.3548344e-005, No Iterations 1
DILUPBiCGStab:  Solving for k, Initial residual = 0.0037240795, Final residual = 4.1994789e-006, No Iterations 1
ExecutionTime = 105.301 s  ClockTime = 105 s

Time = 28

DILUPBiCGStab:  Solving for Ux, Initial residual = 0.015631968, Final residual = 0.0004858244, No Iterations 1
DILUPBiCGStab:  Solving for Uy, Initial residual = 0.0065192407, Final residual = 0.00024848976, No Iterations 1
DILUPBiCGStab:  Solving for Uz, Initial residual = 0.010127611, Final residual = 0.00040482648, No Iterations 1
DICPCG:  Solving for p, Initial residual = 0.094075291, Final residual = 0.00084378432, No Iterations 105
time step continuity errors : sum local = 4.190675e-006, global = -1.4722739e-007, cumulative = 3.8091313e-006
DILUPBiCGStab:  Solving for epsilon, Initial residual = 0.048834267, Final residual = 1.0595408e-005, No Iterations 1
DILUPBiCGStab:  Solving for k, Initial residual = 0.0034539804, Final residual = 4.2149062e-006, No Iterations 1
ExecutionTime = 109.02 s  ClockTime = 109 s

Time = 29

DILUPBiCGStab:  Solving for Ux, Initial residual = 0.015149075, Final residual = 0.00048585208, No Iterations 1
DILUPBiCGStab:  Solving for Uy, Initial residual = 0.0044586161, Final residual = 0.00019390215, No Iterations 1
DILUPBiCGStab:  Solving for Uz, Initial residual = 0.0095210696, Final residual = 0.00039969871, No Iterations 1
DICPCG:  Solving for p, Initial residual = 0.13720985, Final residual = 0.0012098786, No Iterations 106
time step continuity errors : sum local = 3.7502662e-006, global = -9.1462348e-008, cumulative = 3.7176689e-006
DILUPBiCGStab:  Solving for epsilon, Initial residual = 0.038337559, Final residual = 8.3778965e-006, No Iterations 1
DILUPBiCGStab:  Solving for k, Initial residual = 0.0032166456, Final residual = 4.236678e-006, No Iterations 1
ExecutionTime = 112.687 s  ClockTime = 113 s

Time = 30

DILUPBiCGStab:  Solving for Ux, Initial residual = 0.014480543, Final residual = 0.00048157198, No Iterations 1
DILUPBiCGStab:  Solving for Uy, Initial residual = 0.0056637149, Final residual = 0.00025061616, No Iterations 1
DILUPBiCGStab:  Solving for Uz, Initial residual = 0.0091025128, Final residual = 0.00037465214, No Iterations 1
DICPCG:  Solving for p, Initial residual = 0.12017821, Final residual = 0.0011721199, No Iterations 98
time step continuity errors : sum local = 4.1028435e-006, global = -7.3739778e-008, cumulative = 3.6439292e-006
DILUPBiCGStab:  Solving for epsilon, Initial residual = 0.0303178, Final residual = 6.6739335e-006, No Iterations 1
DILUPBiCGStab:  Solving for k, Initial residual = 0.0030071046, Final residual = 4.2520361e-006, No Iterations 1
ExecutionTime = 116.139 s  ClockTime = 116 s

Time = 31

DILUPBiCGStab:  Solving for Ux, Initial residual = 0.013986857, Final residual = 0.00047975299, No Iterations 1
DILUPBiCGStab:  Solving for Uy, Initial residual = 0.0063380475, Final residual = 0.00027620754, No Iterations 1
DILUPBiCGStab:  Solving for Uz, Initial residual = 0.0088354099, Final residual = 0.00034748091, No Iterations 1
DICPCG:  Solving for p, Initial residual = 0.10258513, Final residual = 0.00095531523, No Iterations 86
time step continuity errors : sum local = 3.7309881e-006, global = 2.4242299e-007, cumulative = 3.8863521e-006
DILUPBiCGStab:  Solving for epsilon, Initial residual = 0.024102386, Final residual = 5.3457185e-006, No Iterations 1
DILUPBiCGStab:  Solving for k, Initial residual = 0.0028197082, Final residual = 4.2639887e-006, No Iterations 1
ExecutionTime = 119.637 s  ClockTime = 120 s

Time = 32

DILUPBiCGStab:  Solving for Ux, Initial residual = 0.013770893, Final residual = 0.00048603754, No Iterations 1
DILUPBiCGStab:  Solving for Uy, Initial residual = 0.0058792397, Final residual = 0.00025914115, No Iterations 1
DILUPBiCGStab:  Solving for Uz, Initial residual = 0.0087163604, Final residual = 0.00033262547, No Iterations 1
DICPCG:  Solving for p, Initial residual = 0.1041336, Final residual = 0.00098341458, No Iterations 99
time step continuity errors : sum local = 3.4408134e-006, global = -3.7820908e-008, cumulative = 3.8485312e-006
DILUPBiCGStab:  Solving for epsilon, Initial residual = 0.019234662, Final residual = 4.2996286e-006, No Iterations 1
DILUPBiCGStab:  Solving for k, Initial residual = 0.002654907, Final residual = 4.2741113e-006, No Iterations 1
ExecutionTime = 123.196 s  ClockTime = 123 s

Time = 33

DILUPBiCGStab:  Solving for Ux, Initial residual = 0.013707404, Final residual = 0.00049794186, No Iterations 1
DILUPBiCGStab:  Solving for Uy, Initial residual = 0.0048851888, Final residual = 0.00022268262, No Iterations 1
DILUPBiCGStab:  Solving for Uz, Initial residual = 0.0087400204, Final residual = 0.00032910205, No Iterations 1
DICPCG:  Solving for p, Initial residual = 0.12453941, Final residual = 0.001155393, No Iterations 101
time step continuity errors : sum local = 3.0948824e-006, global = 5.1259724e-008, cumulative = 3.899791e-006
DILUPBiCGStab:  Solving for epsilon, Initial residual = 0.015396047, Final residual = 3.4691129e-006, No Iterations 1
DILUPBiCGStab:  Solving for k, Initial residual = 0.0025106335, Final residual = 4.2819634e-006, No Iterations 1
ExecutionTime = 126.779 s  ClockTime = 127 s

Time = 34

DILUPBiCGStab:  Solving for Ux, Initial residual = 0.013777095, Final residual = 0.00051616442, No Iterations 1
DILUPBiCGStab:  Solving for Uy, Initial residual = 0.0045337846, Final residual = 0.00020440784, No Iterations 1
DILUPBiCGStab:  Solving for Uz, Initial residual = 0.0086727786, Final residual = 0.00032405623, No Iterations 1
DICPCG:  Solving for p, Initial residual = 0.10544993, Final residual = 0.00096364652, No Iterations 99
time step continuity errors : sum local = 2.9550163e-006, global = 7.2972552e-008, cumulative = 3.9727635e-006
DILUPBiCGStab:  Solving for epsilon, Initial residual = 0.012349086, Final residual = 2.8044094e-006, No Iterations 1
DILUPBiCGStab:  Solving for k, Initial residual = 0.0023835037, Final residual = 4.2864398e-006, No Iterations 1
ExecutionTime = 130.263 s  ClockTime = 130 s

Time = 35

DILUPBiCGStab:  Solving for Ux, Initial residual = 0.013938536, Final residual = 0.00053899458, No Iterations 1
DILUPBiCGStab:  Solving for Uy, Initial residual = 0.0047682326, Final residual = 0.000206737, No Iterations 1
DILUPBiCGStab:  Solving for Uz, Initial residual = 0.0084092898, Final residual = 0.0003116515, No Iterations 1
DICPCG:  Solving for p, Initial residual = 0.091219825, Final residual = 0.00090506105, No Iterations 39
time step continuity errors : sum local = 3.1269965e-006, global = -1.1764441e-007, cumulative = 3.8551191e-006
DILUPBiCGStab:  Solving for epsilon, Initial residual = 0.0099208067, Final residual = 2.2697112e-006, No Iterations 1
DILUPBiCGStab:  Solving for k, Initial residual = 0.0022699824, Final residual = 4.28751e-006, No Iterations 1
ExecutionTime = 133.005 s  ClockTime = 133 s

Time = 36

DILUPBiCGStab:  Solving for Ux, Initial residual = 0.014095389, Final residual = 0.00056074483, No Iterations 1
DILUPBiCGStab:  Solving for Uy, Initial residual = 0.0047525145, Final residual = 0.0002069281, No Iterations 1
DILUPBiCGStab:  Solving for Uz, Initial residual = 0.0080396602, Final residual = 0.00029820275, No Iterations 1
DICPCG:  Solving for p, Initial residual = 0.08718873, Final residual = 0.00080824384, No Iterations 84
time step continuity errors : sum local = 2.7718714e-006, global = 1.6386038e-007, cumulative = 4.0189795e-006
DILUPBiCGStab:  Solving for epsilon, Initial residual = 0.007978048, Final residual = 1.8383342e-006, No Iterations 1
DILUPBiCGStab:  Solving for k, Initial residual = 0.0021675349, Final residual = 4.2862325e-006, No Iterations 1
ExecutionTime = 136.319 s  ClockTime = 136 s

Time = 37

DILUPBiCGStab:  Solving for Ux, Initial residual = 0.014228339, Final residual = 0.00058180315, No Iterations 1
DILUPBiCGStab:  Solving for Uy, Initial residual = 0.0045380884, Final residual = 0.00020501581, No Iterations 1
DILUPBiCGStab:  Solving for Uz, Initial residual = 0.0077165152, Final residual = 0.00028920464, No Iterations 1
DICPCG:  Solving for p, Initial residual = 0.090790498, Final residual = 0.00083453664, No Iterations 97
time step continuity errors : sum local = 2.5998132e-006, global = -4.5996548e-009, cumulative = 4.0143798e-006
DILUPBiCGStab:  Solving for epsilon, Initial residual = 0.0064214087, Final residual = 1.4911425e-006, No Iterations 1
DILUPBiCGStab:  Solving for k, Initial residual = 0.002075338, Final residual = 4.2816284e-006, No Iterations 1
ExecutionTime = 139.742 s  ClockTime = 140 s

Time = 38

DILUPBiCGStab:  Solving for Ux, Initial residual = 0.014117422, Final residual = 0.00059369775, No Iterations 1
DILUPBiCGStab:  Solving for Uy, Initial residual = 0.0044522445, Final residual = 0.00020717761, No Iterations 1
DILUPBiCGStab:  Solving for Uz, Initial residual = 0.0074970209, Final residual = 0.00028547725, No Iterations 1
DICPCG:  Solving for p, Initial residual = 0.10030626, Final residual = 0.00099483326, No Iterations 96
time step continuity errors : sum local = 2.7080762e-006, global = 3.6547068e-008, cumulative = 4.0509269e-006
DILUPBiCGStab:  Solving for epsilon, Initial residual = 0.0051737066, Final residual = 1.2121673e-006, No Iterations 1
DILUPBiCGStab:  Solving for k, Initial residual = 0.0019934898, Final residual = 4.2757377e-006, No Iterations 1
ExecutionTime = 143.359 s  ClockTime = 143 s

Time = 39

DILUPBiCGStab:  Solving for Ux, Initial residual = 0.013895743, Final residual = 0.00059838089, No Iterations 1
DILUPBiCGStab:  Solving for Uy, Initial residual = 0.0046465277, Final residual = 0.00021734473, No Iterations 1
DILUPBiCGStab:  Solving for Uz, Initial residual = 0.007356285, Final residual = 0.00028335093, No Iterations 1
DICPCG:  Solving for p, Initial residual = 0.10918758, Final residual = 0.0010871585, No Iterations 74
time step continuity errors : sum local = 2.6463193e-006, global = 5.7025349e-008, cumulative = 4.1079522e-006
DILUPBiCGStab:  Solving for epsilon, Initial residual = 0.0041719486, Final residual = 9.8736333e-007, No Iterations 1
DILUPBiCGStab:  Solving for k, Initial residual = 0.0019208718, Final residual = 4.2678986e-006, No Iterations 1
ExecutionTime = 146.519 s  ClockTime = 147 s

Time = 40

DILUPBiCGStab:  Solving for Ux, Initial residual = 0.013658965, Final residual = 0.00059883434, No Iterations 1
DILUPBiCGStab:  Solving for Uy, Initial residual = 0.0047606605, Final residual = 0.00022229998, No Iterations 1
DILUPBiCGStab:  Solving for Uz, Initial residual = 0.0072734285, Final residual = 0.00028157155, No Iterations 1
DICPCG:  Solving for p, Initial residual = 0.10729895, Final residual = 0.001034993, No Iterations 80
time step continuity errors : sum local = 2.4752899e-006, global = 1.2931821e-007, cumulative = 4.2372704e-006
DILUPBiCGStab:  Solving for epsilon, Initial residual = 0.0033664784, Final residual = 8.0544851e-007, No Iterations 1
DILUPBiCGStab:  Solving for k, Initial residual = 0.0018557423, Final residual = 4.2574077e-006, No Iterations 1
ExecutionTime = 149.649 s  ClockTime = 150 s

Time = 41

DILUPBiCGStab:  Solving for Ux, Initial residual = 0.013550597, Final residual = 0.00059706333, No Iterations 1
DILUPBiCGStab:  Solving for Uy, Initial residual = 0.0047164714, Final residual = 0.00021952706, No Iterations 1
DILUPBiCGStab:  Solving for Uz, Initial residual = 0.0072252123, Final residual = 0.00028050988, No Iterations 1
DICPCG:  Solving for p, Initial residual = 0.10342581, Final residual = 0.0009835198, No Iterations 81
time step continuity errors : sum local = 2.3501132e-006, global = -1.5898957e-007, cumulative = 4.0782809e-006
DILUPBiCGStab:  Solving for epsilon, Initial residual = 0.0027180662, Final residual = 6.579906e-007, No Iterations 1
DILUPBiCGStab:  Solving for k, Initial residual = 0.0017964926, Final residual = 4.2450197e-006, No Iterations 1
ExecutionTime = 153.058 s  ClockTime = 153 s

Time = 42

DILUPBiCGStab:  Solving for Ux, Initial residual = 0.013453906, Final residual = 0.00059491573, No Iterations 1
DILUPBiCGStab:  Solving for Uy, Initial residual = 0.0046182201, Final residual = 0.00021419271, No Iterations 1
DILUPBiCGStab:  Solving for Uz, Initial residual = 0.0071821261, Final residual = 0.00027895271, No Iterations 1
DICPCG:  Solving for p, Initial residual = 0.094864455, Final residual = 0.00090384404, No Iterations 83
time step continuity errors : sum local = 2.2916276e-006, global = -6.729504e-008, cumulative = 4.0109858e-006
DILUPBiCGStab:  Solving for epsilon, Initial residual = 0.0021961899, Final residual = 5.383362e-007, No Iterations 1
DILUPBiCGStab:  Solving for k, Initial residual = 0.0017432351, Final residual = 4.2310851e-006, No Iterations 1
ExecutionTime = 156.321 s  ClockTime = 156 s

Time = 43

DILUPBiCGStab:  Solving for Ux, Initial residual = 0.01340829, Final residual = 0.00059278386, No Iterations 1
DILUPBiCGStab:  Solving for Uy, Initial residual = 0.0045918608, Final residual = 0.00021120335, No Iterations 1
DILUPBiCGStab:  Solving for Uz, Initial residual = 0.0071064498, Final residual = 0.00027497944, No Iterations 1
DICPCG:  Solving for p, Initial residual = 0.087681003, Final residual = 0.00079316972, No Iterations 71
time step continuity errors : sum local = 2.1195707e-006, global = 2.3920594e-009, cumulative = 4.0133779e-006
DILUPBiCGStab:  Solving for epsilon, Initial residual = 0.0017762354, Final residual = 4.4126791e-007, No Iterations 1
DILUPBiCGStab:  Solving for k, Initial residual = 0.0016957489, Final residual = 4.2182723e-006, No Iterations 1
ExecutionTime = 159.247 s  ClockTime = 159 s

Time = 44

DILUPBiCGStab:  Solving for Ux, Initial residual = 0.013470049, Final residual = 0.00059520802, No Iterations 1
DILUPBiCGStab:  Solving for Uy, Initial residual = 0.0046071257, Final residual = 0.00020993308, No Iterations 1
DILUPBiCGStab:  Solving for Uz, Initial residual = 0.0069901996, Final residual = 0.00026864853, No Iterations 1
DICPCG:  Solving for p, Initial residual = 0.083731924, Final residual = 0.00077798946, No Iterations 34
time step continuity errors : sum local = 2.1328734e-006, global = -3.207651e-008, cumulative = 3.9813014e-006
DILUPBiCGStab:  Solving for epsilon, Initial residual = 0.0014379947, Final residual = 3.6220905e-007, No Iterations 1
DILUPBiCGStab:  Solving for k, Initial residual = 0.001653415, Final residual = 4.2084654e-006, No Iterations 1
ExecutionTime = 161.712 s  ClockTime = 162 s

Time = 45

DILUPBiCGStab:  Solving for Ux, Initial residual = 0.013502907, Final residual = 0.00059306495, No Iterations 1
DILUPBiCGStab:  Solving for Uy, Initial residual = 0.0046212573, Final residual = 0.0002097321, No Iterations 1
DILUPBiCGStab:  Solving for Uz, Initial residual = 0.0068480719, Final residual = 0.00026156653, No Iterations 1
DICPCG:  Solving for p, Initial residual = 0.082164607, Final residual = 0.00078445395, No Iterations 77
time step continuity errors : sum local = 2.1385152e-006, global = 3.1097703e-008, cumulative = 4.0123991e-006
DILUPBiCGStab:  Solving for epsilon, Initial residual = 0.0011651928, Final residual = 2.9727577e-007, No Iterations 1
DILUPBiCGStab:  Solving for k, Initial residual = 0.0016150995, Final residual = 4.2028235e-006, No Iterations 1
ExecutionTime = 165.026 s  ClockTime = 165 s

Time = 46

DILUPBiCGStab:  Solving for Ux, Initial residual = 0.013548554, Final residual = 0.00059054042, No Iterations 1
DILUPBiCGStab:  Solving for Uy, Initial residual = 0.0046367938, Final residual = 0.00021023926, No Iterations 1
DILUPBiCGStab:  Solving for Uz, Initial residual = 0.0067327201, Final residual = 0.00025618774, No Iterations 1
DICPCG:  Solving for p, Initial residual = 0.082615834, Final residual = 0.00081214615, No Iterations 77
time step continuity errors : sum local = 2.1552152e-006, global = 1.1756801e-007, cumulative = 4.1299671e-006
DILUPBiCGStab:  Solving for epsilon, Initial residual = 0.00094502736, Final residual = 2.4331975e-007, No Iterations 1
DILUPBiCGStab:  Solving for k, Initial residual = 0.0015796911, Final residual = 4.2055353e-006, No Iterations 1
ExecutionTime = 168.138 s  ClockTime = 168 s

Time = 47

DILUPBiCGStab:  Solving for Ux, Initial residual = 0.013552693, Final residual = 0.00058428897, No Iterations 1
DILUPBiCGStab:  Solving for Uy, Initial residual = 0.0046736469, Final residual = 0.00021153853, No Iterations 1
DILUPBiCGStab:  Solving for Uz, Initial residual = 0.0066490458, Final residual = 0.00025286374, No Iterations 1
DICPCG:  Solving for p, Initial residual = 0.083800101, Final residual = 0.00079682374, No Iterations 70
time step continuity errors : sum local = 2.0442793e-006, global = 4.8821941e-008, cumulative = 4.178789e-006
DILUPBiCGStab:  Solving for epsilon, Initial residual = 0.00076738512, Final residual = 1.9889718e-007, No Iterations 1
DILUPBiCGStab:  Solving for k, Initial residual = 0.0015469702, Final residual = 4.2188064e-006, No Iterations 1
ExecutionTime = 171.182 s  ClockTime = 171 s

Time = 48

DILUPBiCGStab:  Solving for Ux, Initial residual = 0.013415666, Final residual = 0.00056993259, No Iterations 1
DILUPBiCGStab:  Solving for Uy, Initial residual = 0.004729952, Final residual = 0.00021369946, No Iterations 1
DILUPBiCGStab:  Solving for Uz, Initial residual = 0.0065884336, Final residual = 0.00025041692, No Iterations 1
DICPCG:  Solving for p, Initial residual = 0.084553244, Final residual = 0.00081245061, No Iterations 35
time step continuity errors : sum local = 2.0281706e-006, global = -4.782091e-007, cumulative = 3.7005799e-006
DILUPBiCGStab:  Solving for epsilon, Initial residual = 0.000624127, Final residual = 1.639965e-007, No Iterations 1
DILUPBiCGStab:  Solving for k, Initial residual = 0.0015175163, Final residual = 4.2406187e-006, No Iterations 1
ExecutionTime = 173.665 s  ClockTime = 174 s

Time = 49

DILUPBiCGStab:  Solving for Ux, Initial residual = 0.013293642, Final residual = 0.0005534904, No Iterations 1
DILUPBiCGStab:  Solving for Uy, Initial residual = 0.0047694732, Final residual = 0.00021496468, No Iterations 1
DILUPBiCGStab:  Solving for Uz, Initial residual = 0.0065396429, Final residual = 0.00024805767, No Iterations 1
DICPCG:  Solving for p, Initial residual = 0.083827778, Final residual = 0.00080518863, No Iterations 21
time step continuity errors : sum local = 1.9972635e-006, global = 2.6204528e-007, cumulative = 3.9626252e-006
DILUPBiCGStab:  Solving for epsilon, Initial residual = 0.00050838979, Final residual = 1.3646574e-007, No Iterations 1
DILUPBiCGStab:  Solving for k, Initial residual = 0.0014911125, Final residual = 4.2663258e-006, No Iterations 1
ExecutionTime = 175.999 s  ClockTime = 176 s

Time = 50

DILUPBiCGStab:  Solving for Ux, Initial residual = 0.013216068, Final residual = 0.00053883632, No Iterations 1
DILUPBiCGStab:  Solving for Uy, Initial residual = 0.00480689, Final residual = 0.00021558909, No Iterations 1
DILUPBiCGStab:  Solving for Uz, Initial residual = 0.0064913598, Final residual = 0.00024582596, No Iterations 1
DICPCG:  Solving for p, Initial residual = 0.083360873, Final residual = 0.00080425278, No Iterations 55
time step continuity errors : sum local = 1.9856457e-006, global = 2.1460512e-007, cumulative = 4.1772304e-006
DILUPBiCGStab:  Solving for epsilon, Initial residual = 0.00041476993, Final residual = 1.1445752e-007, No Iterations 1
DILUPBiCGStab:  Solving for k, Initial residual = 0.0014669656, Final residual = 4.2936241e-006, No Iterations 1
ExecutionTime = 178.782 s  ClockTime = 179 s

Time = 51

DILUPBiCGStab:  Solving for Ux, Initial residual = 0.01313026, Final residual = 0.00051782638, No Iterations 1
DILUPBiCGStab:  Solving for Uy, Initial residual = 0.0048366097, Final residual = 0.00021582292, No Iterations 1
DILUPBiCGStab:  Solving for Uz, Initial residual = 0.0064416092, Final residual = 0.00024286601, No Iterations 1
DICPCG:  Solving for p, Initial residual = 0.08266921, Final residual = 0.00080178829, No Iterations 58
time step continuity errors : sum local = 1.9827383e-006, global = 1.2742173e-007, cumulative = 4.3046521e-006
DILUPBiCGStab:  Solving for epsilon, Initial residual = 0.00033896051, Final residual = 9.6220427e-008, No Iterations 1
DILUPBiCGStab:  Solving for k, Initial residual = 0.0014443001, Final residual = 4.322537e-006, No Iterations 1
ExecutionTime = 181.558 s  ClockTime = 182 s

Time = 52

DILUPBiCGStab:  Solving for Ux, Initial residual = 0.013091774, Final residual = 0.00050538513, No Iterations 1
DILUPBiCGStab:  Solving for Uy, Initial residual = 0.0048595035, Final residual = 0.00021546592, No Iterations 1
DILUPBiCGStab:  Solving for Uz, Initial residual = 0.0063901757, Final residual = 0.00023989014, No Iterations 1
DICPCG:  Solving for p, Initial residual = 0.081033086, Final residual = 0.00078257429, No Iterations 57
time step continuity errors : sum local = 1.95232e-006, global = 2.69477e-007, cumulative = 4.5741291e-006
DILUPBiCGStab:  Solving for epsilon, Initial residual = 0.00027757329, Final residual = 8.1490259e-008, No Iterations 1
DILUPBiCGStab:  Solving for k, Initial residual = 0.0014231499, Final residual = 4.3543914e-006, No Iterations 1
ExecutionTime = 184.458 s  ClockTime = 184 s

Time = 53

DILUPBiCGStab:  Solving for Ux, Initial residual = 0.013084679, Final residual = 0.000504382, No Iterations 1
DILUPBiCGStab:  Solving for Uy, Initial residual = 0.004884583, Final residual = 0.00021534731, No Iterations 1
DILUPBiCGStab:  Solving for Uz, Initial residual = 0.0063365209, Final residual = 0.00023683066, No Iterations 1
DICPCG:  Solving for p, Initial residual = 0.079533676, Final residual = 0.0007027204, No Iterations 21
time step continuity errors : sum local = 1.7611176e-006, global = 3.1126218e-007, cumulative = 4.8853913e-006
DILUPBiCGStab:  Solving for epsilon, Initial residual = 0.00022843214, Final residual = 7.0560564e-008, No Iterations 1
DILUPBiCGStab:  Solving for k, Initial residual = 0.0014041042, Final residual = 4.3891232e-006, No Iterations 1
ExecutionTime = 186.621 s  ClockTime = 187 s

Time = 54

DILUPBiCGStab:  Solving for Ux, Initial residual = 0.013045858, Final residual = 0.00049663962, No Iterations 1
DILUPBiCGStab:  Solving for Uy, Initial residual = 0.0049196387, Final residual = 0.00021588339, No Iterations 1
DILUPBiCGStab:  Solving for Uz, Initial residual = 0.0062855137, Final residual = 0.00023371503, No Iterations 1
DICPCG:  Solving for p, Initial residual = 0.078927113, Final residual = 0.00071796489, No Iterations 22
time step continuity errors : sum local = 1.7924169e-006, global = 1.1730691e-008, cumulative = 4.897122e-006
DILUPBiCGStab:  Solving for epsilon, Initial residual = 0.00018879416, Final residual = 6.2325825e-008, No Iterations 1
DILUPBiCGStab:  Solving for k, Initial residual = 0.00138709, Final residual = 4.4245589e-006, No Iterations 1
ExecutionTime = 189.05 s  ClockTime = 189 s

Time = 55

DILUPBiCGStab:  Solving for Ux, Initial residual = 0.013004294, Final residual = 0.00049063426, No Iterations 1
DILUPBiCGStab:  Solving for Uy, Initial residual = 0.0049543322, Final residual = 0.00021646694, No Iterations 1
DILUPBiCGStab:  Solving for Uz, Initial residual = 0.0062276191, Final residual = 0.00023070652, No Iterations 1
DICPCG:  Solving for p, Initial residual = 0.078101243, Final residual = 0.00077644968, No Iterations 35
time step continuity errors : sum local = 1.9303574e-006, global = -2.5073488e-007, cumulative = 4.6463871e-006
DILUPBiCGStab:  Solving for epsilon, Initial residual = 0.000156581, Final residual = 5.5747965e-008, No Iterations 1
DILUPBiCGStab:  Solving for k, Initial residual = 0.0013713431, Final residual = 4.4586695e-006, No Iterations 1
ExecutionTime = 191.481 s  ClockTime = 191 s

Time = 56

DILUPBiCGStab:  Solving for Ux, Initial residual = 0.01303445, Final residual = 0.00049201694, No Iterations 1
DILUPBiCGStab:  Solving for Uy, Initial residual = 0.0049893765, Final residual = 0.00021703388, No Iterations 1
DILUPBiCGStab:  Solving for Uz, Initial residual = 0.0061740571, Final residual = 0.00022864681, No Iterations 1
DICPCG:  Solving for p, Initial residual = 0.077207192, Final residual = 0.00073515551, No Iterations 38
time step continuity errors : sum local = 1.8190348e-006, global = -3.6016227e-007, cumulative = 4.2862248e-006
DILUPBiCGStab:  Solving for epsilon, Initial residual = 0.00013035251, Final residual = 5.0324737e-008, No Iterations 1
DILUPBiCGStab:  Solving for k, Initial residual = 0.0013562855, Final residual = 4.4909478e-006, No Iterations 1
ExecutionTime = 194.217 s  ClockTime = 194 s

Time = 57

DILUPBiCGStab:  Solving for Ux, Initial residual = 0.013126762, Final residual = 0.00049507925, No Iterations 1
DILUPBiCGStab:  Solving for Uy, Initial residual = 0.0050266519, Final residual = 0.00021768189, No Iterations 1
DILUPBiCGStab:  Solving for Uz, Initial residual = 0.0061312462, Final residual = 0.00022713058, No Iterations 1
DICPCG:  Solving for p, Initial residual = 0.076608134, Final residual = 0.00073566001, No Iterations 21
time step continuity errors : sum local = 1.8086705e-006, global = -7.2358273e-007, cumulative = 3.5626421e-006
DILUPBiCGStab:  Solving for epsilon, Initial residual = 0.00010901009, Final residual = 4.5900391e-008, No Iterations 1
DILUPBiCGStab:  Solving for k, Initial residual = 0.0013421985, Final residual = 4.5229021e-006, No Iterations 1
ExecutionTime = 196.372 s  ClockTime = 196 s

Time = 58

DILUPBiCGStab:  Solving for Ux, Initial residual = 0.013068182, Final residual = 0.00048999729, No Iterations 1
DILUPBiCGStab:  Solving for Uy, Initial residual = 0.0050627658, Final residual = 0.00021833899, No Iterations 1
DILUPBiCGStab:  Solving for Uz, Initial residual = 0.0060900842, Final residual = 0.00022577742, No Iterations 1
DICPCG:  Solving for p, Initial residual = 0.075804177, Final residual = 0.00074438219, No Iterations 45
time step continuity errors : sum local = 1.821756e-006, global = -4.1454402e-008, cumulative = 3.5211877e-006
DILUPBiCGStab:  Solving for epsilon, Initial residual = 9.1620499e-005, Final residual = 4.2332822e-008, No Iterations 1
DILUPBiCGStab:  Solving for k, Initial residual = 0.0013296315, Final residual = 4.5559902e-006, No Iterations 1
ExecutionTime = 199.04 s  ClockTime = 199 s

Time = 59

DILUPBiCGStab:  Solving for Ux, Initial residual = 0.012915807, Final residual = 0.00047686794, No Iterations 1
DILUPBiCGStab:  Solving for Uy, Initial residual = 0.0051090146, Final residual = 0.0002193412, No Iterations 1
DILUPBiCGStab:  Solving for Uz, Initial residual = 0.0060689162, Final residual = 0.00022542054, No Iterations 1
DICPCG:  Solving for p, Initial residual = 0.076249981, Final residual = 0.00066597216, No Iterations 21
time step continuity errors : sum local = 1.6031883e-006, global = -5.4288384e-007, cumulative = 2.9783039e-006
DILUPBiCGStab:  Solving for epsilon, Initial residual = 7.7410043e-005, Final residual = 3.9448569e-008, No Iterations 1
DILUPBiCGStab:  Solving for k, Initial residual = 0.0013183809, Final residual = 4.589093e-006, No Iterations 1
ExecutionTime = 201.188 s  ClockTime = 201 s

Time = 60

DILUPBiCGStab:  Solving for Ux, Initial residual = 0.012853919, Final residual = 0.00047178112, No Iterations 1
DILUPBiCGStab:  Solving for Uy, Initial residual = 0.0051443715, Final residual = 0.00021990242, No Iterations 1
DILUPBiCGStab:  Solving for Uz, Initial residual = 0.0060456384, Final residual = 0.00022484951, No Iterations 1
DICPCG:  Solving for p, Initial residual = 0.076279587, Final residual = 0.00067313397, No Iterations 21
time step continuity errors : sum local = 1.612747e-006, global = -4.3852306e-007, cumulative = 2.5397808e-006
DILUPBiCGStab:  Solving for epsilon, Initial residual = 6.5769782e-005, Final residual = 3.7094646e-008, No Iterations 1
DILUPBiCGStab:  Solving for k, Initial residual = 0.0013076969, Final residual = 4.6198595e-006, No Iterations 1
ExecutionTime = 203.433 s  ClockTime = 203 s

Time = 61

DILUPBiCGStab:  Solving for Ux, Initial residual = 0.012783633, Final residual = 0.00046647694, No Iterations 1
DILUPBiCGStab:  Solving for Uy, Initial residual = 0.005178213, Final residual = 0.00022037659, No Iterations 1
DILUPBiCGStab:  Solving for Uz, Initial residual = 0.006024874, Final residual = 0.00022434917, No Iterations 1
DICPCG:  Solving for p, Initial residual = 0.076535834, Final residual = 0.00071584002, No Iterations 21
time step continuity errors : sum local = 1.7063894e-006, global = -3.7625902e-007, cumulative = 2.1635218e-006
DILUPBiCGStab:  Solving for epsilon, Initial residual = 5.6219431e-005, Final residual = 3.5161116e-008, No Iterations 1
DILUPBiCGStab:  Solving for k, Initial residual = 0.0012973354, Final residual = 4.647335e-006, No Iterations 1
ExecutionTime = 205.568 s  ClockTime = 206 s

Time = 62

DILUPBiCGStab:  Solving for Ux, Initial residual = 0.012710404, Final residual = 0.00046102931, No Iterations 1
DILUPBiCGStab:  Solving for Uy, Initial residual = 0.0052100589, Final residual = 0.00022077155, No Iterations 1
DILUPBiCGStab:  Solving for Uz, Initial residual = 0.0060057689, Final residual = 0.00022378444, No Iterations 1
DICPCG:  Solving for p, Initial residual = 0.076946115, Final residual = 0.00075072046, No Iterations 21
time step continuity errors : sum local = 1.77991e-006, global = -3.5902286e-007, cumulative = 1.8044989e-006
DILUPBiCGStab:  Solving for epsilon, Initial residual = 4.8393682e-005, Final residual = 3.3593892e-008, No Iterations 1
DILUPBiCGStab:  Solving for k, Initial residual = 0.0012878115, Final residual = 4.6732499e-006, No Iterations 1
ExecutionTime = 207.848 s  ClockTime = 208 s

Time = 63

DILUPBiCGStab:  Solving for Ux, Initial residual = 0.012637864, Final residual = 0.00045552048, No Iterations 1
DILUPBiCGStab:  Solving for Uy, Initial residual = 0.005239706, Final residual = 0.00022106309, No Iterations 1
DILUPBiCGStab:  Solving for Uz, Initial residual = 0.0059878674, Final residual = 0.00022315954, No Iterations 1
DICPCG:  Solving for p, Initial residual = 0.077308895, Final residual = 0.00065454621, No Iterations 22
time step continuity errors : sum local = 1.5436416e-006, global = -3.8394874e-007, cumulative = 1.4205502e-006
DILUPBiCGStab:  Solving for epsilon, Initial residual = 4.1962444e-005, Final residual = 3.2347306e-008, No Iterations 1
DILUPBiCGStab:  Solving for k, Initial residual = 0.0012794049, Final residual = 4.6984866e-006, No Iterations 1
ExecutionTime = 210.049 s  ClockTime = 210 s

Time = 64

DILUPBiCGStab:  Solving for Ux, Initial residual = 0.012569292, Final residual = 0.00044988536, No Iterations 1
DILUPBiCGStab:  Solving for Uy, Initial residual = 0.0052670438, Final residual = 0.00022125154, No Iterations 1
DILUPBiCGStab:  Solving for Uz, Initial residual = 0.0059727146, Final residual = 0.00022264291, No Iterations 1
DICPCG:  Solving for p, Initial residual = 0.077266678, Final residual = 0.00072638166, No Iterations 22
time step continuity errors : sum local = 1.7037053e-006, global = -4.3931258e-007, cumulative = 9.812376e-007
DILUPBiCGStab:  Solving for epsilon, Initial residual = 3.6663998e-005, Final residual = 3.1348619e-008, No Iterations 1
DILUPBiCGStab:  Solving for k, Initial residual = 0.0012715704, Final residual = 4.7210468e-006, No Iterations 1
ExecutionTime = 212.483 s  ClockTime = 212 s

Time = 65

DILUPBiCGStab:  Solving for Ux, Initial residual = 0.012502005, Final residual = 0.00044410155, No Iterations 1
DILUPBiCGStab:  Solving for Uy, Initial residual = 0.0052926385, Final residual = 0.00022136848, No Iterations 1
DILUPBiCGStab:  Solving for Uz, Initial residual = 0.0059600846, Final residual = 0.00022230616, No Iterations 1
DICPCG:  Solving for p, Initial residual = 0.076961829, Final residual = 0.00074690862, No Iterations 38
time step continuity errors : sum local = 1.74204e-006, global = -3.9312258e-007, cumulative = 5.8811502e-007
DILUPBiCGStab:  Solving for epsilon, Initial residual = 3.2289689e-005, Final residual = 3.0543792e-008, No Iterations 1
DILUPBiCGStab:  Solving for k, Initial residual = 0.001263732, Final residual = 4.7387166e-006, No Iterations 1
ExecutionTime = 214.967 s  ClockTime = 215 s

Time = 66

DILUPBiCGStab:  Solving for Ux, Initial residual = 0.012485637, Final residual = 0.0004410503, No Iterations 1
DILUPBiCGStab:  Solving for Uy, Initial residual = 0.0053173662, Final residual = 0.0002213841, No Iterations 1
DILUPBiCGStab:  Solving for Uz, Initial residual = 0.0059537935, Final residual = 0.00022292507, No Iterations 1
DICPCG:  Solving for p, Initial residual = 0.076575881, Final residual = 0.00069304006, No Iterations 22
time step continuity errors : sum local = 1.6048878e-006, global = -4.9684506e-007, cumulative = 9.1269962e-008
DILUPBiCGStab:  Solving for epsilon, Initial residual = 2.8679341e-005, Final residual = 2.9977947e-008, No Iterations 1
DILUPBiCGStab:  Solving for k, Initial residual = 0.0012560962, Final residual = 4.7521587e-006, No Iterations 1
ExecutionTime = 217.394 s  ClockTime = 217 s

Time = 67

DILUPBiCGStab:  Solving for Ux, Initial residual = 0.012419998, Final residual = 0.00043466173, No Iterations 1
DILUPBiCGStab:  Solving for Uy, Initial residual = 0.005338638, Final residual = 0.00022140756, No Iterations 1
DILUPBiCGStab:  Solving for Uz, Initial residual = 0.0059443144, Final residual = 0.00022225967, No Iterations 1
DICPCG:  Solving for p, Initial residual = 0.075785166, Final residual = 0.00073170142, No Iterations 23
time step continuity errors : sum local = 1.6855084e-006, global = -5.3855718e-007, cumulative = -4.4728721e-007
DILUPBiCGStab:  Solving for epsilon, Initial residual = 2.5703432e-005, Final residual = 2.966773e-008, No Iterations 1
DILUPBiCGStab:  Solving for k, Initial residual = 0.0012492366, Final residual = 4.7627744e-006, No Iterations 1
ExecutionTime = 219.638 s  ClockTime = 220 s

Time = 68

DILUPBiCGStab:  Solving for Ux, Initial residual = 0.012365044, Final residual = 0.00042860808, No Iterations 1
DILUPBiCGStab:  Solving for Uy, Initial residual = 0.0053574761, Final residual = 0.00022134348, No Iterations 1
DILUPBiCGStab:  Solving for Uz, Initial residual = 0.0059381511, Final residual = 0.00022145634, No Iterations 1
DICPCG:  Solving for p, Initial residual = 0.07487322, Final residual = 0.00071510333, No Iterations 40
time step continuity errors : sum local = 1.6382706e-006, global = -2.7449681e-007, cumulative = -7.2178402e-007
DILUPBiCGStab:  Solving for epsilon, Initial residual = 2.3247137e-005, Final residual = 2.9592975e-008, No Iterations 1
DILUPBiCGStab:  Solving for k, Initial residual = 0.0012430196, Final residual = 4.7695745e-006, No Iterations 1
ExecutionTime = 222.225 s  ClockTime = 222 s

Time = 69

DILUPBiCGStab:  Solving for Ux, Initial residual = 0.01247869, Final residual = 0.00042973784, No Iterations 1
DILUPBiCGStab:  Solving for Uy, Initial residual = 0.0053768233, Final residual = 0.00022128643, No Iterations 1
DILUPBiCGStab:  Solving for Uz, Initial residual = 0.0059357271, Final residual = 0.00022075515, No Iterations 1
DICPCG:  Solving for p, Initial residual = 0.074303331, Final residual = 0.00070507857, No Iterations 21
time step continuity errors : sum local = 1.6004611e-006, global = -4.8110235e-007, cumulative = -1.2028864e-006
DILUPBiCGStab:  Solving for epsilon, Initial residual = 2.1218091e-005, Final residual = 2.9711787e-008, No Iterations 1
DILUPBiCGStab:  Solving for k, Initial residual = 0.0012367461, Final residual = 4.7697288e-006, No Iterations 1
ExecutionTime = 224.354 s  ClockTime = 224 s

Time = 70

DILUPBiCGStab:  Solving for Ux, Initial residual = 0.012401907, Final residual = 0.00042321366, No Iterations 1
DILUPBiCGStab:  Solving for Uy, Initial residual = 0.0053895257, Final residual = 0.0002210101, No Iterations 1
DILUPBiCGStab:  Solving for Uz, Initial residual = 0.005927391, Final residual = 0.000219186, No Iterations 1
DICPCG:  Solving for p, Initial residual = 0.073445729, Final residual = 0.0006708861, No Iterations 22
time step continuity errors : sum local = 1.514141e-006, global = -4.8873269e-007, cumulative = -1.6916191e-006
DILUPBiCGStab:  Solving for epsilon, Initial residual = 1.9544627e-005, Final residual = 3.0003067e-008, No Iterations 1
DILUPBiCGStab:  Solving for k, Initial residual = 0.0012302534, Final residual = 4.762518e-006, No Iterations 1
ExecutionTime = 226.655 s  ClockTime = 227 s

Time = 71

DILUPBiCGStab:  Solving for Ux, Initial residual = 0.01231336, Final residual = 0.00041611906, No Iterations 1
DILUPBiCGStab:  Solving for Uy, Initial residual = 0.0053994563, Final residual = 0.0002206141, No Iterations 1
DILUPBiCGStab:  Solving for Uz, Initial residual = 0.005924183, Final residual = 0.00021749952, No Iterations 1
DICPCG:  Solving for p, Initial residual = 0.072647566, Final residual = 0.00069073958, No Iterations 55
time step continuity errors : sum local = 1.5500512e-006, global = -7.6589071e-008, cumulative = -1.7682081e-006
DILUPBiCGStab:  Solving for epsilon, Initial residual = 1.8176931e-005, Final residual = 3.0469291e-008, No Iterations 1
DILUPBiCGStab:  Solving for k, Initial residual = 0.0012240622, Final residual = 4.7500136e-006, No Iterations 1
ExecutionTime = 229.393 s  ClockTime = 229 s

Time = 72

DILUPBiCGStab:  Solving for Ux, Initial residual = 0.012094869, Final residual = 0.00040263884, No Iterations 1
DILUPBiCGStab:  Solving for Uy, Initial residual = 0.0054143249, Final residual = 0.00022034429, No Iterations 1
DILUPBiCGStab:  Solving for Uz, Initial residual = 0.0059234568, Final residual = 0.00021573625, No Iterations 1
DICPCG:  Solving for p, Initial residual = 0.072625545, Final residual = 0.00070874391, No Iterations 21
time step continuity errors : sum local = 1.5679238e-006, global = -2.8095639e-007, cumulative = -2.0491645e-006
DILUPBiCGStab:  Solving for epsilon, Initial residual = 1.7066296e-005, Final residual = 3.1092293e-008, No Iterations 1
DILUPBiCGStab:  Solving for k, Initial residual = 0.0012183294, Final residual = 4.7329844e-006, No Iterations 1
ExecutionTime = 231.81 s  ClockTime = 232 s

Time = 73

DILUPBiCGStab:  Solving for Ux, Initial residual = 0.012010641, Final residual = 0.00039549607, No Iterations 1
DILUPBiCGStab:  Solving for Uy, Initial residual = 0.0054165026, Final residual = 0.000219598, No Iterations 1
DILUPBiCGStab:  Solving for Uz, Initial residual = 0.0059239701, Final residual = 0.0002136531, No Iterations 1
DICPCG:  Solving for p, Initial residual = 0.072153308, Final residual = 0.00071722722, No Iterations 21
time step continuity errors : sum local = 1.5779776e-006, global = -2.3826831e-007, cumulative = -2.2874328e-006
DILUPBiCGStab:  Solving for epsilon, Initial residual = 1.6169883e-005, Final residual = 3.183695e-008, No Iterations 1
DILUPBiCGStab:  Solving for k, Initial residual = 0.0012123515, Final residual = 4.7092536e-006, No Iterations 1
ExecutionTime = 233.971 s  ClockTime = 234 s

Time = 74

DILUPBiCGStab:  Solving for Ux, Initial residual = 0.011936306, Final residual = 0.00038860339, No Iterations 1
DILUPBiCGStab:  Solving for Uy, Initial residual = 0.0054145456, Final residual = 0.00021865358, No Iterations 1
DILUPBiCGStab:  Solving for Uz, Initial residual = 0.0059268296, Final residual = 0.00021125644, No Iterations 1
DICPCG:  Solving for p, Initial residual = 0.071741101, Final residual = 0.00066454667, No Iterations 22
time step continuity errors : sum local = 1.4542367e-006, global = -2.6444608e-007, cumulative = -2.5518789e-006
DILUPBiCGStab:  Solving for epsilon, Initial residual = 1.5455011e-005, Final residual = 3.2700977e-008, No Iterations 1
DILUPBiCGStab:  Solving for k, Initial residual = 0.0012056351, Final residual = 4.6773919e-006, No Iterations 1
ExecutionTime = 236.269 s  ClockTime = 236 s

Time = 75

DILUPBiCGStab:  Solving for Ux, Initial residual = 0.011872292, Final residual = 0.00038241337, No Iterations 1
DILUPBiCGStab:  Solving for Uy, Initial residual = 0.0054085863, Final residual = 0.00021750217, No Iterations 1
DILUPBiCGStab:  Solving for Uz, Initial residual = 0.0059334188, Final residual = 0.00020852126, No Iterations 1
DICPCG:  Solving for p, Initial residual = 0.071323613, Final residual = 0.00068610803, No Iterations 37
time step continuity errors : sum local = 1.4934221e-006, global = -3.0198902e-007, cumulative = -2.8538679e-006
DILUPBiCGStab:  Solving for epsilon, Initial residual = 1.4902305e-005, Final residual = 3.3704838e-008, No Iterations 1
DILUPBiCGStab:  Solving for k, Initial residual = 0.0011985117, Final residual = 4.6390239e-006, No Iterations 1
ExecutionTime = 238.701 s  ClockTime = 239 s

Time = 76

DILUPBiCGStab:  Solving for Ux, Initial residual = 0.011888202, Final residual = 0.00037927015, No Iterations 1
DILUPBiCGStab:  Solving for Uy, Initial residual = 0.005399574, Final residual = 0.00021614867, No Iterations 1
DILUPBiCGStab:  Solving for Uz, Initial residual = 0.0059404223, Final residual = 0.00020573026, No Iterations 1
DICPCG:  Solving for p, Initial residual = 0.070905295, Final residual = 0.0006771854, No Iterations 39
time step continuity errors : sum local = 1.4650492e-006, global = -2.3527902e-007, cumulative = -3.089147e-006
DILUPBiCGStab:  Solving for epsilon, Initial residual = 1.4494884e-005, Final residual = 3.4833047e-008, No Iterations 1
DILUPBiCGStab:  Solving for k, Initial residual = 0.0011913961, Final residual = 4.5959705e-006, No Iterations 1
ExecutionTime = 241.423 s  ClockTime = 241 s

Time = 77

DILUPBiCGStab:  Solving for Ux, Initial residual = 0.011952781, Final residual = 0.00037844896, No Iterations 1
DILUPBiCGStab:  Solving for Uy, Initial residual = 0.0053850824, Final residual = 0.00021451393, No Iterations 1
DILUPBiCGStab:  Solving for Uz, Initial residual = 0.0059475325, Final residual = 0.00020237041, No Iterations 1
DICPCG:  Solving for p, Initial residual = 0.070512693, Final residual = 0.0006836001, No Iterations 21
time step continuity errors : sum local = 1.4688159e-006, global = -4.0379556e-007, cumulative = -3.4929425e-006
DILUPBiCGStab:  Solving for epsilon, Initial residual = 1.4212773e-005, Final residual = 3.6048052e-008, No Iterations 1
DILUPBiCGStab:  Solving for k, Initial residual = 0.0011838596, Final residual = 4.5470184e-006, No Iterations 1
ExecutionTime = 243.575 s  ClockTime = 244 s

Time = 78

DILUPBiCGStab:  Solving for Ux, Initial residual = 0.011891361, Final residual = 0.00037341319, No Iterations 1
DILUPBiCGStab:  Solving for Uy, Initial residual = 0.0053613686, Final residual = 0.00021250871, No Iterations 1
DILUPBiCGStab:  Solving for Uz, Initial residual = 0.0059468237, Final residual = 0.00019815738, No Iterations 1
DICPCG:  Solving for p, Initial residual = 0.070070707, Final residual = 0.00065136573, No Iterations 45
time step continuity errors : sum local = 1.3920267e-006, global = -1.3441642e-007, cumulative = -3.6273589e-006
DILUPBiCGStab:  Solving for epsilon, Initial residual = 1.4037559e-005, Final residual = 3.7297314e-008, No Iterations 1
DILUPBiCGStab:  Solving for k, Initial residual = 0.0011752068, Final residual = 4.4900987e-006, No Iterations 1
ExecutionTime = 246.195 s  ClockTime = 246 s

Time = 79

DILUPBiCGStab:  Solving for Ux, Initial residual = 0.011933935, Final residual = 0.00037286962, No Iterations 1
DILUPBiCGStab:  Solving for Uy, Initial residual = 0.0053370859, Final residual = 0.00021037085, No Iterations 1
DILUPBiCGStab:  Solving for Uz, Initial residual = 0.0059551945, Final residual = 0.00019399263, No Iterations 1
DICPCG:  Solving for p, Initial residual = 0.070079993, Final residual = 0.00064787792, No Iterations 21
time step continuity errors : sum local = 1.370585e-006, global = -3.9020732e-007, cumulative = -4.0175663e-006
DILUPBiCGStab:  Solving for epsilon, Initial residual = 1.3959455e-005, Final residual = 3.8559476e-008, No Iterations 1
DILUPBiCGStab:  Solving for k, Initial residual = 0.0011655207, Final residual = 4.4261397e-006, No Iterations 1
ExecutionTime = 248.33 s  ClockTime = 248 s

Time = 80

DILUPBiCGStab:  Solving for Ux, Initial residual = 0.011856407, Final residual = 0.00036773103, No Iterations 1
DILUPBiCGStab:  Solving for Uy, Initial residual = 0.0052984954, Final residual = 0.00020768816, No Iterations 1
DILUPBiCGStab:  Solving for Uz, Initial residual = 0.0059542105, Final residual = 0.00018987504, No Iterations 1
DICPCG:  Solving for p, Initial residual = 0.069704084, Final residual = 0.00066129061, No Iterations 56
time step continuity errors : sum local = 1.3912933e-006, global = -8.2248397e-008, cumulative = -4.0998147e-006
DILUPBiCGStab:  Solving for epsilon, Initial residual = 1.3974361e-005, Final residual = 3.9824621e-008, No Iterations 1
DILUPBiCGStab:  Solving for k, Initial residual = 0.0011552372, Final residual = 4.3573031e-006, No Iterations 1
ExecutionTime = 251.297 s  ClockTime = 251 s

Time = 81

DILUPBiCGStab:  Solving for Ux, Initial residual = 0.011615079, Final residual = 0.00035610729, No Iterations 1
DILUPBiCGStab:  Solving for Uy, Initial residual = 0.0052587305, Final residual = 0.00020481737, No Iterations 1
DILUPBiCGStab:  Solving for Uz, Initial residual = 0.0059558408, Final residual = 0.00018599855, No Iterations 1
DICPCG:  Solving for p, Initial residual = 0.069788675, Final residual = 0.00065204717, No Iterations 22
time step continuity errors : sum local = 1.3542017e-006, global = -2.9148178e-007, cumulative = -4.3912964e-006
DILUPBiCGStab:  Solving for epsilon, Initial residual = 1.4071597e-005, Final residual = 4.106929e-008, No Iterations 1
DILUPBiCGStab:  Solving for k, Initial residual = 0.0011441578, Final residual = 4.2833785e-006, No Iterations 1
ExecutionTime = 253.462 s  ClockTime = 253 s

Time = 82

DILUPBiCGStab:  Solving for Ux, Initial residual = 0.011533256, Final residual = 0.00035190271, No Iterations 1
DILUPBiCGStab:  Solving for Uy, Initial residual = 0.0052052647, Final residual = 0.00020145868, No Iterations 1
DILUPBiCGStab:  Solving for Uz, Initial residual = 0.005954201, Final residual = 0.00018196435, No Iterations 1
DICPCG:  Solving for p, Initial residual = 0.069248819, Final residual = 0.00065678316, No Iterations 24
time step continuity errors : sum local = 1.3562815e-006, global = -3.5089776e-007, cumulative = -4.7421942e-006
DILUPBiCGStab:  Solving for epsilon, Initial residual = 1.4236154e-005, Final residual = 4.2265199e-008, No Iterations 1
DILUPBiCGStab:  Solving for k, Initial residual = 0.0011315507, Final residual = 4.2023199e-006, No Iterations 1
ExecutionTime = 255.758 s  ClockTime = 256 s

Time = 83

DILUPBiCGStab:  Solving for Ux, Initial residual = 0.011461129, Final residual = 0.00034823849, No Iterations 1
DILUPBiCGStab:  Solving for Uy, Initial residual = 0.0051462931, Final residual = 0.00019782421, No Iterations 1
DILUPBiCGStab:  Solving for Uz, Initial residual = 0.0059557806, Final residual = 0.00017812851, No Iterations 1
DICPCG:  Solving for p, Initial residual = 0.068699567, Final residual = 0.00065289032, No Iterations 54
time step continuity errors : sum local = 1.3403828e-006, global = -1.118309e-007, cumulative = -4.8540251e-006
DILUPBiCGStab:  Solving for epsilon, Initial residual = 1.4458559e-005, Final residual = 4.3412288e-008, No Iterations 1
DILUPBiCGStab:  Solving for k, Initial residual = 0.0011172305, Final residual = 4.1141449e-006, No Iterations 1
ExecutionTime = 258.462 s  ClockTime = 258 s

Time = 84

[...]
DILUPBiCGStab:  Solving for Uy, Initial residual = 0.00092308035, Final residual = 2.2178324e-005, No Iterations 1
DILUPBiCGStab:  Solving for Uz, Initial residual = 0.0031136141, Final residual = 7.3139083e-005, No Iterations 1
DICPCG:  Solving for p, Initial residual = 0.0094997174, Final residual = 9.248607e-005, No Iterations 105
time step continuity errors : sum local = 1.0335861e-006, global = -2.9808787e-007, cumulative = 1.1406433e-005
DILUPBiCGStab:  Solving for epsilon, Initial residual = 8.3387601e-006, Final residual = 8.3387601e-006, No Iterations 0
DILUPBiCGStab:  Solving for k, Initial residual = 0.00016849742, Final residual = 1.0613459e-006, No Iterations 1
ExecutionTime = 770.189 s  ClockTime = 770 s

Time = 231

DILUPBiCGStab:  Solving for Ux, Initial residual = 0.0031628856, Final residual = 6.5266946e-005, No Iterations 1
DILUPBiCGStab:  Solving for Uy, Initial residual = 0.00091934181, Final residual = 2.2104591e-005, No Iterations 1
DILUPBiCGStab:  Solving for Uz, Initial residual = 0.0030633263, Final residual = 7.1743087e-005, No Iterations 1
DICPCG:  Solving for p, Initial residual = 0.0094965995, Final residual = 9.3361729e-005, No Iterations 105
time step continuity errors : sum local = 1.016889e-006, global = -2.9544662e-007, cumulative = 1.1110987e-005
DILUPBiCGStab:  Solving for epsilon, Initial residual = 8.1331082e-006, Final residual = 8.1331082e-006, No Iterations 0
DILUPBiCGStab:  Solving for k, Initial residual = 0.00016043984, Final residual = 1.0079458e-006, No Iterations 1
ExecutionTime = 773.827 s  ClockTime = 774 s

Time = 232

DILUPBiCGStab:  Solving for Ux, Initial residual = 0.003121279, Final residual = 6.4379389e-005, No Iterations 1
DILUPBiCGStab:  Solving for Uy, Initial residual = 0.00091577513, Final residual = 2.203325e-005, No Iterations 1
DILUPBiCGStab:  Solving for Uz, Initial residual = 0.0030140207, Final residual = 7.0378338e-005, No Iterations 1
DICPCG:  Solving for p, Initial residual = 0.0094997066, Final residual = 9.3122658e-005, No Iterations 109
time step continuity errors : sum local = 9.8711526e-007, global = -2.8333013e-007, cumulative = 1.0827656e-005
DILUPBiCGStab:  Solving for epsilon, Initial residual = 8.1600534e-006, Final residual = 8.1600534e-006, No Iterations 0
DILUPBiCGStab:  Solving for k, Initial residual = 0.00015697032, Final residual = 9.8361312e-007, No Iterations 1
ExecutionTime = 777.889 s  ClockTime = 778 s

Time = 233

DILUPBiCGStab:  Solving for Ux, Initial residual = 0.0030805576, Final residual = 6.3498635e-005, No Iterations 1
DILUPBiCGStab:  Solving for Uy, Initial residual = 0.00091235208, Final residual = 2.1964222e-005, No Iterations 1
DILUPBiCGStab:  Solving for Uz, Initial residual = 0.0029651035, Final residual = 6.9033955e-005, No Iterations 1
DICPCG:  Solving for p, Initial residual = 0.0095292084, Final residual = 9.3032677e-005, No Iterations 114
time step continuity errors : sum local = 9.5751085e-007, global = -3.1368817e-007, cumulative = 1.0513968e-005
DILUPBiCGStab:  Solving for epsilon, Initial residual = 9.6439543e-006, Final residual = 9.6439543e-006, No Iterations 0
DILUPBiCGStab:  Solving for k, Initial residual = 0.00017970923, Final residual = 1.1232626e-006, No Iterations 1
ExecutionTime = 781.524 s  ClockTime = 782 s

Time = 234

DILUPBiCGStab:  Solving for Ux, Initial residual = 0.0030407812, Final residual = 6.2628397e-005, No Iterations 1
DILUPBiCGStab:  Solving for Uy, Initial residual = 0.00090905804, Final residual = 2.1897056e-005, No Iterations 1
DILUPBiCGStab:  Solving for Uz, Initial residual = 0.0029170029, Final residual = 6.7720512e-005, No Iterations 1
DICPCG:  Solving for p, Initial residual = 0.0095673924, Final residual = 9.2188528e-005, No Iterations 242
time step continuity errors : sum local = 9.193234e-007, global = 1.7151865e-008, cumulative = 1.053112e-005
DILUPBiCGStab:  Solving for epsilon, Initial residual = 1.543251e-005, Final residual = 2.6085866e-008, No Iterations 1
bounding epsilon, min: -0.018917099 max: 517.87028 average: 3.9580248
DILUPBiCGStab:  Solving for k, Initial residual = 0.00029456829, Final residual = 1.8366481e-006, No Iterations 1
ExecutionTime = 787.585 s  ClockTime = 788 s

Time = 235

DILUPBiCGStab:  Solving for Ux, Initial residual = 0.016097099, Final residual = 0.00028208584, No Iterations 1
DILUPBiCGStab:  Solving for Uy, Initial residual = 0.0027806985, Final residual = 5.5185214e-005, No Iterations 1
DILUPBiCGStab:  Solving for Uz, Initial residual = 0.020556893, Final residual = 0.00044716255, No Iterations 1
DICPCG:  Solving for p, Initial residual = 0.61805012, Final residual = 0.0060968579, No Iterations 29
time step continuity errors : sum local = 0.00019064483, global = 3.8435479e-006, cumulative = 1.4374668e-005
DILUPBiCGStab:  Solving for epsilon, Initial residual = 1.4762304e-005, Final residual = 1.9616633e-008, No Iterations 1
bounding epsilon, min: -0.012480301 max: 537.27015 average: 3.998282
DILUPBiCGStab:  Solving for k, Initial residual = 0.0010281433, Final residual = 4.0809471e-006, No Iterations 1
ExecutionTime = 790.322 s  ClockTime = 790 s

Time = 236

DILUPBiCGStab:  Solving for Ux, Initial residual = 0.020314505, Final residual = 0.00031410935, No Iterations 1
DILUPBiCGStab:  Solving for Uy, Initial residual = 0.003447611, Final residual = 5.385691e-005, No Iterations 1
DILUPBiCGStab:  Solving for Uz, Initial residual = 0.03300198, Final residual = 0.00046741578, No Iterations 1
DICPCG:  Solving for p, Initial residual = 0.559949, Final residual = 0.0055798883, No Iterations 37
time step continuity errors : sum local = 0.00012946829, global = 8.8762132e-006, cumulative = 2.3250881e-005
DILUPBiCGStab:  Solving for epsilon, Initial residual = 6.8893171e-005, Final residual = 1.0810676e-007, No Iterations 1
bounding epsilon, min: -0.0094414989 max: 643.81008 average: 4.1755447
DILUPBiCGStab:  Solving for k, Initial residual = 0.0093250647, Final residual = 1.910194e-005, No Iterations 1
ExecutionTime = 792.905 s  ClockTime = 793 s

Time = 237

DILUPBiCGStab:  Solving for Ux, Initial residual = 0.017248288, Final residual = 0.00035904339, No Iterations 1
DILUPBiCGStab:  Solving for Uy, Initial residual = 0.0024271543, Final residual = 5.3531692e-005, No Iterations 1
DILUPBiCGStab:  Solving for Uz, Initial residual = 0.026936603, Final residual = 0.00053289378, No Iterations 1
DICPCG:  Solving for p, Initial residual = 0.50908262, Final residual = 0.00497562, No Iterations 49
time step continuity errors : sum local = 9.6530695e-005, global = 1.2358562e-005, cumulative = 3.5609443e-005
DILUPBiCGStab:  Solving for epsilon, Initial residual = 0.00015791137, Final residual = 2.3314394e-007, No Iterations 1
bounding epsilon, min: -0.75864683 max: 6057.3025 average: 4.4920406
DILUPBiCGStab:  Solving for k, Initial residual = 0.0043714355, Final residual = 9.188557e-006, No Iterations 1
ExecutionTime = 795.718 s  ClockTime = 796 s

Time = 238

DILUPBiCGStab:  Solving for Ux, Initial residual = 0.018195098, Final residual = 0.0003962952, No Iterations 1
DILUPBiCGStab:  Solving for Uy, Initial residual = 0.0022955433, Final residual = 5.2444815e-005, No Iterations 1
DILUPBiCGStab:  Solving for Uz, Initial residual = 0.026801744, Final residual = 0.00054858586, No Iterations 1
DICPCG:  Solving for p, Initial residual = 0.42147183, Final residual = 0.0041760139, No Iterations 56
time step continuity errors : sum local = 6.8786126e-005, global = 1.5106566e-005, cumulative = 5.0716009e-005
DILUPBiCGStab:  Solving for epsilon, Initial residual = 0.00029685899, Final residual = 5.2217631e-007, No Iterations 1
bounding epsilon, min: -11.106134 max: 17543.674 average: 4.916863
DILUPBiCGStab:  Solving for k, Initial residual = 0.0024277255, Final residual = 6.6177197e-006, No Iterations 1
ExecutionTime = 798.845 s  ClockTime = 799 s

Time = 239

DILUPBiCGStab:  Solving for Ux, Initial residual = 0.19261304, Final residual = 0.0015388231, No Iterations 1
DILUPBiCGStab:  Solving for Uy, Initial residual = 0.085872137, Final residual = 0.00037111929, No Iterations 1
DILUPBiCGStab:  Solving for Uz, Initial residual = 0.28916385, Final residual = 0.001099475, No Iterations 1
DICPCG:  Solving for p, Initial residual = 0.41761929, Final residual = 0.0041605529, No Iterations 100
time step continuity errors : sum local = 6.0557011e-005, global = 2.1071167e-005, cumulative = 7.1787176e-005
DILUPBiCGStab:  Solving for epsilon, Initial residual = 0.00046162892, Final residual = 2.6436133e-007, No Iterations 1
bounding epsilon, min: -0.81425577 max: 30587.401 average: 5.3788197
DILUPBiCGStab:  Solving for k, Initial residual = 0.019115064, Final residual = 6.985265e-006, No Iterations 1
ExecutionTime = 802.367 s  ClockTime = 802 s

Time = 240

DILUPBiCGStab:  Solving for Ux, Initial residual = 0.986236, Final residual = 0.035097712, No Iterations 1
DILUPBiCGStab:  Solving for Uy, Initial residual = 0.84737524, Final residual = 0.016703187, No Iterations 1
DILUPBiCGStab:  Solving for Uz, Initial residual = 0.98857998, Final residual = 0.027474482, No Iterations 1
DICPCG:  Solving for p, Initial residual = 0.90536539, Final residual = 0.0088844074, No Iterations 9
time step continuity errors : sum local = 1.5574311, global = 1.6051054e-005, cumulative = 8.783823e-005
DILUPBiCGStab:  Solving for epsilon, Initial residual = 0.99997531, Final residual = 0.0015201864, No Iterations 1
bounding epsilon, min: -0.57964478 max: 1.6247578e+008 average: 913.95653
DILUPBiCGStab:  Solving for k, Initial residual = 0.99999987, Final residual = 0.0019677483, No Iterations 1
ExecutionTime = 804.603 s  ClockTime = 805 s

Time = 241

DILUPBiCGStab:  Solving for Ux, Initial residual = 0.31222072, Final residual = 0.0049210098, No Iterations 1
DILUPBiCGStab:  Solving for Uy, Initial residual = 0.30181523, Final residual = 0.0033016933, No Iterations 1
DILUPBiCGStab:  Solving for Uz, Initial residual = 0.38605621, Final residual = 0.0049954607, No Iterations 1
DICPCG:  Solving for p, Initial residual = 0.80961239, Final residual = 0.0077135408, No Iterations 324
time step continuity errors : sum local = 0.21829524, global = -0.009951474, cumulative = -0.0098636357
DILUPBiCGStab:  Solving for epsilon, Initial residual = 0.018466077, Final residual = 4.0224841e-006, No Iterations 1
bounding epsilon, min: -3.8300727e+009 max: 4.2794566e+012 average: 8241147.5
DILUPBiCGStab:  Solving for k, Initial residual = 0.9975841, Final residual = 0.0022058024, No Iterations 1
ExecutionTime = 812.104 s  ClockTime = 812 s

Time = 242

DILUPBiCGStab:  Solving for Ux, Initial residual = 0.1873825, Final residual = 0.002280365, No Iterations 1
DILUPBiCGStab:  Solving for Uy, Initial residual = 0.21780027, Final residual = 0.0024126288, No Iterations 1
DILUPBiCGStab:  Solving for Uz, Initial residual = 0.2100018, Final residual = 0.0021054822, No Iterations 1
DICPCG:  Solving for p, Initial residual = 8.7966511e-005, Final residual = 8.0614313e-007, No Iterations 96
time step continuity errors : sum local = 4.3772335, global = 0.82703515, cumulative = 0.81717151
DILUPBiCGStab:  Solving for epsilon, Initial residual = 0.020926941, Final residual = 1.3176328e-005, No Iterations 1
bounding epsilon, min: -6.6070128e+011 max: 1.6716061e+015 average: 3.1500413e+009
DILUPBiCGStab:  Solving for k, Initial residual = 0.18327111, Final residual = 0.00030897559, No Iterations 1
ExecutionTime = 815.719 s  ClockTime = 816 s

Time = 243

DILUPBiCGStab:  Solving for Ux, Initial residual = 0.13282592, Final residual = 0.0020964134, No Iterations 1
DILUPBiCGStab:  Solving for Uy, Initial residual = 0.163187, Final residual = 0.0018375349, No Iterations 1
DILUPBiCGStab:  Solving for Uz, Initial residual = 0.16384492, Final residual = 0.0018884985, No Iterations 1
DICPCG:  Solving for p, Initial residual = 0.0041267136, Final residual = 1.9868403e-005, No Iterations 5
time step continuity errors : sum local = 5316.4325, global = 0.25364278, cumulative = 1.0708143
DILUPBiCGStab:  Solving for epsilon, Initial residual = 0.97381151, Final residual = 0.00085882083, No Iterations 1
bounding epsilon, min: -4.78085e+014 max: 2.5121639e+021 average: 6.2816611e+015
DILUPBiCGStab:  Solving for k, Initial residual = 0.93684046, Final residual = 6.5168082e-005, No Iterations 1
bounding k, min: -9770.961 max: 1.0115116e+018 average: 2.8465682e+012
ExecutionTime = 817.936 s  ClockTime = 818 s

Time = 244

DILUPBiCGStab:  Solving for Ux, Initial residual = 0.01037161, Final residual = 7.6524547e-005, No Iterations 1
DILUPBiCGStab:  Solving for Uy, Initial residual = 0.0028098604, Final residual = 9.259135e-006, No Iterations 1
DILUPBiCGStab:  Solving for Uz, Initial residual = 0.0031587323, Final residual = 1.8758912e-005, No Iterations 1
DICPCG:  Solving for p, Initial residual = 0.0002852442, Final residual = 2.8280802e-006, No Iterations 483
time step continuity errors : sum local = 2884.0126, global = 402.17042, cumulative = 403.24123
DILUPBiCGStab:  Solving for epsilon, Initial residual = 6.7215063e-008, Final residual = 6.7215063e-008, No Iterations 0
DILUPBiCGStab:  Solving for k, Initial residual = 1.2457121e-005, Final residual = 2.3212436e-009, No Iterations 1
bounding k, min: -1.3345663e+014 max: 8.5669259e+021 average: 1.815266e+016
ExecutionTime = 828.047 s  ClockTime = 828 s

Time = 245

DILUPBiCGStab:  Solving for Ux, Initial residual = 0.12496814, Final residual = 0.0010903342, No Iterations 1
DILUPBiCGStab:  Solving for Uy, Initial residual = 0.039351977, Final residual = 0.0002909746, No Iterations 1
DILUPBiCGStab:  Solving for Uz, Initial residual = 0.10806647, Final residual = 0.00094438228, No Iterations 1
DICPCG:  Solving for p, Initial residual = 9.638266e-006, Final residual = 6.6029577e-008, No Iterations 16
time step continuity errors : sum local = 1.1641138e+008, global = 189.2606, cumulative = 592.50183
DILUPBiCGStab:  Solving for epsilon, Initial residual = 0.00010166963, Final residual = 1.2673805e-007, No Iterations 1
bounding epsilon, min: -1.09738e+026 max: 1.9238484e+030 average: 1.634006e+024
DILUPBiCGStab:  Solving for k, Initial residual = 0.023523781, Final residual = 4.1777339e-005, No Iterations 1
bounding k, min: -3.5581527e+012 max: 3.1842709e+026 average: 7.4604945e+020
ExecutionTime = 830.29 s  ClockTime = 830 s

Time = 246

DILUPBiCGStab:  Solving for Ux, Initial residual = 0.032083171, Final residual = 0.00038398197, No Iterations 1
DILUPBiCGStab:  Solving for Uy, Initial residual = 0.045495796, Final residual = 0.0004287556, No Iterations 1
DILUPBiCGStab:  Solving for Uz, Initial residual = 0.71681081, Final residual = 0.0010791736, No Iterations 1
DICPCG:  Solving for p, Initial residual = 0.7429453, Final residual = 0.0071126783, No Iterations 7
time step continuity errors : sum local = 1.19666e+013, global = 59.015968, cumulative = 651.5178
DILUPBiCGStab:  Solving for epsilon, Initial residual = 2.5121703e-016, Final residual = 2.5121703e-016, No Iterations 0
DILUPBiCGStab:  Solving for k, Initial residual = 0.15082788, Final residual = 2.9922506e-005, No Iterations 1
bounding k, min: -3.2850897e+022 max: 4.5865001e+036 average: 1.6252972e+031
ExecutionTime = 832.241 s  ClockTime = 832 s

Time = 247

DILUPBiCGStab:  Solving for Ux, Initial residual = 0.055563895, Final residual = 0.00080562952, No Iterations 1
DILUPBiCGStab:  Solving for Uy, Initial residual = 0.027763374, Final residual = 0.00037102903, No Iterations 1
DILUPBiCGStab:  Solving for Uz, Initial residual = 0.040605847, Final residual = 0.00032594859, No Iterations 1
DICPCG:  Solving for p, Initial residual = 4.3893596e-011, Final residual = 4.3893596e-011, No Iterations 0
time step continuity errors : sum local = 2.1394834e+030, global = -4.9330266e+013, cumulative = -4.9330266e+013
DILUPBiCGStab:  Solving for epsilon, Initial residual = 0.0054229149, Final residual = 3.48016e-006, No Iterations 1
bounding epsilon, min: -1.8598189e+045 max: 1.2446559e+052 average: 1.8865104e+046
DILUPBiCGStab:  Solving for k, Initial residual = 0.99413238, Final residual = 0.0010138863, No Iterations 1
bounding k, min: -2.4778113e+027 max: 2.1479157e+041 average: 2.8950901e+035
ExecutionTime = 834.429 s  ClockTime = 834 s

Time = 248

DILUPBiCGStab:  Solving for Ux, Initial residual = 0.03915129, Final residual = 0.00029996173, No Iterations 1
DILUPBiCGStab:  Solving for Uy, Initial residual = 0.050954822, Final residual = 0.00021912607, No Iterations 1
DILUPBiCGStab:  Solving for Uz, Initial residual = 0.18424193, Final residual = 0.0003165076, No Iterations 1
DICPCG:  Solving for p, Initial residual = 7.970754e-015, Final residual = 7.970754e-015, No Iterations 0
time step continuity errors : sum local = 2.149788e+031, global = 4.7830982e+015, cumulative = 4.733768e+015
DILUPBiCGStab:  Solving for epsilon, Initial residual = 8.5572963e-014, Final residual = 8.5572963e-014, No Iterations 0
bounding epsilon, min: 1.5305099e-020 max: 1.8442638e+060 average: 1.8868012e+054
DILUPBiCGStab:  Solving for k, Initial residual = 0.068995245, Final residual = 6.3780213e-005, No Iterations 1
bounding k, min: -2.4066845e+032 max: 1.5304019e+063 average: 2.5254812e+057
ExecutionTime = 836.532 s  ClockTime = 837 s

Time = 249

DILUPBiCGStab:  Solving for Ux, Initial residual = 0.33589462, Final residual = 0.0070113872, No Iterations 1
DILUPBiCGStab:  Solving for Uy, Initial residual = 0.51897012, Final residual = 0.010339339, No Iterations 1
DILUPBiCGStab:  Solving for Uz, Initial residual = 0.97233442, Final residual = 0.00073372327, No Iterations 1
DICPCG:  Solving for p, Initial residual = 1.1360919e-010, Final residual = 1.1360919e-010, No Iterations 0
time step continuity errors : sum local = 2.5260336e+030, global = -6.0481933e+014, cumulative = 4.1289486e+015
DILUPBiCGStab:  Solving for epsilon, Initial residual = 1.6123531e-018, Final residual = 1.6123531e-018, No Iterations 0
bounding epsilon, min: 6.1237646e-020 max: 2.7863781e+084 average: 3.6436899e+078

job aborted:
[ranks] message

[0-12] terminated

[13] process exited without calling finalize

---- error analysis -----

[13] on DESKTOP-6ISUCKQ
simpleFoam ended prematurely and may have crashed. exit code 3

---- error analysis -----
/*---------------------------------------------------------------------------*\
| =========                 |                                                 |
| \\      /  F ield         | OpenFOAM: The Open Source CFD Toolbox           |
|  \\    /   O peration     | Version:  5.x                                   |
|   \\  /    A nd           | Web:      www.OpenFOAM.org                      |
|    \\/     M anipulation  |                                                 |
\*---------------------------------------------------------------------------*/
/*   Windows 32 and 64 bit porting by blueCAPE: http://www.bluecape.com.pt   *\
|  Based on Windows porting (2.0.x v4) by Symscape: http://www.symscape.com   |
\*---------------------------------------------------------------------------*/
Build  : 5.x-963176928289
Exec   : reconstructPar -latestTime
Date   : Feb 24 2022
Time   : 15:08:26
Host   : "DESKTOP-6ISUCKQ"
PID    : 17676
I/O    : uncollated
Case   : E:/CFD_GAN_Generative_Box/12_Case_Type_Slab_NS_Height_30_Dist_20_dir_0/0
nProcs : 1
SigFpe : Enabling floating point exception trapping (FOAM_SIGFPE).
fileModificationChecking : Monitoring run-time modified files using timeStampMaster (fileModificationSkew 10)
allowSystemOperations : Allowing user-supplied system call operations

// * * * * * * * * * * * * * * * * * * * * * * * * * * * * * * * * * * * * * //
Create time



Reconstructing fields for mesh region0

Time = 200

Reconstructing FV fields

    Reconstructing volScalarFields

        total(p)_coeff
        p
        nut
        k
        epsilon

    Reconstructing volVectorFields

        U

    Reconstructing surfaceScalarFields

        phi

Reconstructing point fields

No point fields

No lagrangian fields


End

